**.subckt toplevel VDD VSS CLK CE CLR reg2 reg1 reg0 Q0 Q1 Q2 Q3
*.ipin VDD
*.ipin VSS
*.ipin CLK
*.ipin CE
*.ipin CLR
*.ipin reg2
*.ipin reg1
*.ipin reg0
*.opin Q0
*.opin Q1
*.opin Q2
*.opin Q3
x2 VDD VSS Q0_contador4bits Q0_4bitc b0_c4b Q0 D0_contador Q0_contador4bits reg0 Q0_4bitc b0_c4b
+ D0_contador reg1 reg2 mux_8to1_fs
x3 VDD VSS Q1_contador4bits Q1_4bitc b1_c4b Q1 D1_contador Q1_contador4bits reg0 Q1_4bitc b1_c4b
+ D1_contador reg1 reg2 mux_8to1_fs
x4 VDD VSS Q2_contador4bits Q2_4bitc b2_c4b Q2 D2_contador Q2_contador4bits reg0 Q2_4bitc b2_c4b
+ D2_contador reg1 reg2 mux_8to1_fs
x5 VDD VSS Q3_contador4bits Q3_4bitc b3_c4b Q3 D3_contador Q3_contador4bits reg0 Q3_4bitc b3_c4b
+ D3_contador reg1 reg2 mux_8to1_fs
x6 Q0_4bitc CE net6 Q1_4bitc net5 Q2_4bitc net4 Q3_4bitc net2 net3 VSS VDD CLR CLK 4bitc
x7 CE CLK CLR VDD VSS b0_c4b b1_c4b b2_c4b b3_c4b net7 c4b
x8 D0_contador CE CLR CLK VSS VDD D1_contador D2_contador D3_contador contador
x1 VDD Q0_contador4bits Q2_contador4bits Q3_contador4bits Q1_contador4bits CE CLR net1 VSS CLK
+ contador4bits
**.ends

* expanding   symbol:  mux_8to1_fs.sym # of pins=14
* sym_path: /home/fsolis/caravel_eamta_2021/track_vlsi/toplevel_vlsi/sch/mux_8to1_fs.sym
* sch_path: /home/fsolis/caravel_eamta_2021/track_vlsi/toplevel_vlsi/sch/mux_8to1_fs.sch
.subckt mux_8to1_fs  avdd1p8 avss1p8 mux_i7 mux_i6 mux_i5 out_mux mux_i4 mux_i3 reg0 mux_i2 mux_i1
+ mux_i0 reg1 reg2
*.ipin reg2
*.ipin reg1
*.ipin reg0
*.opin out_mux
*.iopin avdd1p8
*.iopin avss1p8
*.ipin mux_i7
*.ipin mux_i6
*.ipin mux_i5
*.ipin mux_i4
*.ipin mux_i3
*.ipin mux_i2
*.ipin mux_i1
*.ipin mux_i0
x1 avdd1p8 reg2 avss1p8 mux_i3 net1 mux_i2 mux_2to1_logic
x2 avdd1p8 reg2 avss1p8 mux_i1 net2 mux_i0 mux_2to1_logic
x3 avdd1p8 reg1 avss1p8 net1 net3 net2 mux_2to1_logic
x5 avdd1p8 reg2 avss1p8 mux_i7 net4 mux_i6 mux_2to1_logic
x6 avdd1p8 reg2 avss1p8 mux_i5 net5 mux_i4 mux_2to1_logic
x7 avdd1p8 reg1 avss1p8 net4 net6 net5 mux_2to1_logic
x8 avdd1p8 reg0 avss1p8 net6 out_mux net3 mux_2to1_logic
.ends


* expanding   symbol:  4bitc.sym # of pins=14
* sym_path: /home/fsolis/caravel_eamta_2021/track_vlsi/toplevel_vlsi/sch/4bitc.sym
* sch_path: /home/fsolis/caravel_eamta_2021/track_vlsi/toplevel_vlsi/sch/4bitc.sch
.subckt 4bitc  Q0 CE Q0n Q1 Q1n Q2 Q2n Q3 Q3n Sout3 vss vdd CLR CLK
*.ipin CE
*.opin Q0
*.opin Q1
*.opin Q2
*.opin Q3
*.ipin vdd
*.ipin vss
*.ipin CLR
*.ipin CLK
*.opin Q0n
*.opin Q1n
*.opin Q2n
*.opin Q3n
*.opin Sout3
x2 vdd CE Q0 net2 vss and_lede
x3 vdd Q0 CE net1 vss xor_lede
x5 vdd net2 Q1 net5 vss and_lede
x6 vdd Q1 net2 net3 vss xor_lede
x8 vdd net5 Q2 net7 vss and_lede
x9 vdd Q2 net5 net4 vss xor_lede
x11 vdd net7 Q3 Sout3 vss and_lede
x12 vdd Q3 net7 net6 vss xor_lede
x1 vdd vss Q0 net1 CLK CLR Q0n ffdc
x4 vdd vss Q1 net3 CLK CLR Q1n ffdc
x7 vdd vss Q2 net4 CLK CLR Q2n ffdc
x10 vdd vss Q3 net6 CLK CLR Q3n ffdc
.ends


* expanding   symbol:  c4b.sym # of pins=10
* sym_path: /home/fsolis/caravel_eamta_2021/track_vlsi/toplevel_vlsi/sch/c4b.sym
* sch_path: /home/fsolis/caravel_eamta_2021/track_vlsi/toplevel_vlsi/sch/c4b.sch
.subckt c4b  ce clk clr vdd vss b0 b1 b2 b3 out
*.ipin clr
*.ipin vdd
*.ipin vss
*.ipin clk
*.ipin ce
*.opin b1
*.opin b0
*.opin b2
*.opin b3
*.opin out
x1 ce clk clr vdd vss b0 b1 net1 c2b
x2 net1 clk clr vdd vss b2 b3 out c2b
.ends


* expanding   symbol:  contador.sym # of pins=9
* sym_path: /home/fsolis/caravel_eamta_2021/track_vlsi/toplevel_vlsi/sch/contador.sym
* sch_path: /home/fsolis/caravel_eamta_2021/track_vlsi/toplevel_vlsi/sch/contador.sch
.subckt contador  D0 CE CLR CLK vss vdd D1 D2 D3
*.ipin CE
*.ipin CLR
*.ipin CLK
*.ipin vss
*.ipin vdd
*.opin D0
*.opin D1
*.opin D2
*.opin D3
x2 D0 vdd vss net1 CLR CLK net2 dffc_somo
x1 vdd CE net3 D0 vss and_somo
x3 net1 D0 CE vdd vss xor_somo
x4 D1 vdd vss net11 CLR CLK net5 dffc_somo
x5 vdd net3 net4 D1 vss and_somo
x6 net11 D1 net3 vdd vss xor_somo
x7 D2 vdd vss net6 CLR CLK net8 dffc_somo
x8 vdd net4 net7 D2 vss and_somo
x9 net6 D2 net4 vdd vss xor_somo
x10 D3 vdd vss net9 CLR CLK net10 dffc_somo
x12 net9 D3 net7 vdd vss xor_somo
.ends


* expanding   symbol:  contador4bits.sym # of pins=10
* sym_path: /home/fsolis/caravel_eamta_2021/track_vlsi/toplevel_vlsi/sch/contador4bits.sym
* sch_path: /home/fsolis/caravel_eamta_2021/track_vlsi/toplevel_vlsi/sch/contador4bits.sch
.subckt contador4bits  vdd Q0 Q2 Q3 Q1 CE CLR Sout vss CLK
*.ipin CE
*.ipin CLR
*.ipin vdd
*.ipin CLK
*.ipin vss
*.opin Q0
*.opin Q1
*.opin Q2
*.opin Q3
*.opin Sout
x1 vdd Q0 net1 CLK CLR CE vss contador1bit
x2 vdd Q1 net2 CLK CLR net1 vss contador1bit
x3 vdd Q2 net3 CLK CLR net2 vss contador1bit
x4 vdd Q3 Sout CLK CLR net3 vss contador1bit
.ends


* expanding   symbol:  mux_2to1_logic.sym # of pins=6
* sym_path: /home/fsolis/caravel_eamta_2021/track_vlsi/toplevel_vlsi/sch/mux_2to1_logic.sym
* sch_path: /home/fsolis/caravel_eamta_2021/track_vlsi/toplevel_vlsi/sch/mux_2to1_logic.sch
.subckt mux_2to1_logic  avdd1p8 sel avss1p8 DinB out DinA
*.ipin DinB
*.ipin DinA
*.iopin avdd1p8
*.iopin avss1p8
*.ipin sel
*.opin out
XM5 out sel_b DinB avdd1p8 sky130_fd_pr__pfet_01v8 L=0.15 W=2.22 nf=1 ad='int((nf+1)/2) * W/nf * 0.29'
+ as='int((nf+2)/2) * W/nf * 0.29' pd='2*int((nf+1)/2) * (W/nf + 0.29)' ps='2*int((nf+2)/2) * (W/nf + 0.29)'
+ nrd='0.29 / W' nrs='0.29 / W' sa=0 sb=0 sd=0 mult=1 m=1 
XM6 DinB sel out avss1p8 sky130_fd_pr__nfet_01v8 L=0.15 W=1.11 nf=1 ad='int((nf+1)/2) * W/nf * 0.29'
+ as='int((nf+2)/2) * W/nf * 0.29' pd='2*int((nf+1)/2) * (W/nf + 0.29)' ps='2*int((nf+2)/2) * (W/nf + 0.29)'
+ nrd='0.29 / W' nrs='0.29 / W' sa=0 sb=0 sd=0 mult=1 m=1 
XM2 out sel DinA avdd1p8 sky130_fd_pr__pfet_01v8 L=0.15 W=2.22 nf=1 ad='int((nf+1)/2) * W/nf * 0.29'
+ as='int((nf+2)/2) * W/nf * 0.29' pd='2*int((nf+1)/2) * (W/nf + 0.29)' ps='2*int((nf+2)/2) * (W/nf + 0.29)'
+ nrd='0.29 / W' nrs='0.29 / W' sa=0 sb=0 sd=0 mult=1 m=1 
XM7 DinA sel_b out avss1p8 sky130_fd_pr__nfet_01v8 L=0.15 W=1.11 nf=1 ad='int((nf+1)/2) * W/nf * 0.29'
+ as='int((nf+2)/2) * W/nf * 0.29' pd='2*int((nf+1)/2) * (W/nf + 0.29)' ps='2*int((nf+2)/2) * (W/nf + 0.29)'
+ nrd='0.29 / W' nrs='0.29 / W' sa=0 sb=0 sd=0 mult=1 m=1 
x1 avdd1p8 sel_b sel avss1p8 inverter_min
.ends


* expanding   symbol:  and_lede.sym # of pins=5
* sym_path: /home/fsolis/caravel_eamta_2021/track_vlsi/toplevel_vlsi/sch/and_lede.sym
* sch_path: /home/fsolis/caravel_eamta_2021/track_vlsi/toplevel_vlsi/sch/and_lede.sch
.subckt and_lede  vdd A B out vss
*.opin out
*.ipin vdd
*.ipin A
*.ipin B
*.ipin vss
XM1 net1 B vss vss sky130_fd_pr__nfet_01v8 L=0.15 W=0.9 nf=1 ad='int((nf+1)/2) * W/nf * 0.29' as='int((nf+2)/2) * W/nf * 0.29'
+ pd='2*int((nf+1)/2) * (W/nf + 0.29)' ps='2*int((nf+2)/2) * (W/nf + 0.29)' nrd='0.29 / W' nrs='0.29 / W'
+ sa=0 sb=0 sd=0 mult=1 m=1 
XM2 net2 B vdd vdd sky130_fd_pr__pfet_01v8 L=0.15 W=0.9 nf=1 ad='int((nf+1)/2) * W/nf * 0.29' as='int((nf+2)/2) * W/nf * 0.29'
+ pd='2*int((nf+1)/2) * (W/nf + 0.29)' ps='2*int((nf+2)/2) * (W/nf + 0.29)' nrd='0.29 / W' nrs='0.29 / W'
+ sa=0 sb=0 sd=0 mult=1 m=1 
XM3 net2 A net1 vss sky130_fd_pr__nfet_01v8 L=0.15 W=0.9 nf=1 ad='int((nf+1)/2) * W/nf * 0.29' as='int((nf+2)/2) * W/nf * 0.29'
+ pd='2*int((nf+1)/2) * (W/nf + 0.29)' ps='2*int((nf+2)/2) * (W/nf + 0.29)' nrd='0.29 / W' nrs='0.29 / W'
+ sa=0 sb=0 sd=0 mult=1 m=1 
XM4 net2 A vdd vdd sky130_fd_pr__pfet_01v8 L=0.15 W=0.9 nf=1 ad='int((nf+1)/2) * W/nf * 0.29' as='int((nf+2)/2) * W/nf * 0.29'
+ pd='2*int((nf+1)/2) * (W/nf + 0.29)' ps='2*int((nf+2)/2) * (W/nf + 0.29)' nrd='0.29 / W' nrs='0.29 / W'
+ sa=0 sb=0 sd=0 mult=1 m=1 
XM5 out net2 vdd vdd sky130_fd_pr__pfet_01v8 L=0.15 W=0.9 nf=1 ad='int((nf+1)/2) * W/nf * 0.29' as='int((nf+2)/2) * W/nf * 0.29'
+ pd='2*int((nf+1)/2) * (W/nf + 0.29)' ps='2*int((nf+2)/2) * (W/nf + 0.29)' nrd='0.29 / W' nrs='0.29 / W'
+ sa=0 sb=0 sd=0 mult=1 m=1 
XM6 out net2 vss vss sky130_fd_pr__nfet_01v8 L=0.15 W=0.45 nf=1 ad='int((nf+1)/2) * W/nf * 0.29' as='int((nf+2)/2) * W/nf * 0.29'
+ pd='2*int((nf+1)/2) * (W/nf + 0.29)' ps='2*int((nf+2)/2) * (W/nf + 0.29)' nrd='0.29 / W' nrs='0.29 / W'
+ sa=0 sb=0 sd=0 mult=1 m=1 
.ends


* expanding   symbol:  xor_lede.sym # of pins=5
* sym_path: /home/fsolis/caravel_eamta_2021/track_vlsi/toplevel_vlsi/sch/xor_lede.sym
* sch_path: /home/fsolis/caravel_eamta_2021/track_vlsi/toplevel_vlsi/sch/xor_lede.sch
.subckt xor_lede  vdd a b z vss
*.ipin vdd
*.ipin vss
*.ipin a
*.ipin b
*.opin z
XM1 net1 Bb vdd vdd sky130_fd_pr__pfet_01v8 L=0.15 W=0.9 nf=1 ad='int((nf+1)/2) * W/nf * 0.29' as='int((nf+2)/2) * W/nf * 0.29'
+ pd='2*int((nf+1)/2) * (W/nf + 0.29)' ps='2*int((nf+2)/2) * (W/nf + 0.29)' nrd='0.29 / W' nrs='0.29 / W'
+ sa=0 sb=0 sd=0 mult=1 m=1 
XM2 z a net1 vdd sky130_fd_pr__pfet_01v8 L=0.15 W=0.9 nf=1 ad='int((nf+1)/2) * W/nf * 0.29' as='int((nf+2)/2) * W/nf * 0.29'
+ pd='2*int((nf+1)/2) * (W/nf + 0.29)' ps='2*int((nf+2)/2) * (W/nf + 0.29)' nrd='0.29 / W' nrs='0.29 / W'
+ sa=0 sb=0 sd=0 mult=1 m=1 
XM3 Ab a vdd vdd sky130_fd_pr__pfet_01v8 L=0.15 W=0.9 nf=1 ad='int((nf+1)/2) * W/nf * 0.29' as='int((nf+2)/2) * W/nf * 0.29'
+ pd='2*int((nf+1)/2) * (W/nf + 0.29)' ps='2*int((nf+2)/2) * (W/nf + 0.29)' nrd='0.29 / W' nrs='0.29 / W'
+ sa=0 sb=0 sd=0 mult=1 m=1 
XM4 Bb b vdd vdd sky130_fd_pr__pfet_01v8 L=0.15 W=0.9 nf=1 ad='int((nf+1)/2) * W/nf * 0.29' as='int((nf+2)/2) * W/nf * 0.29'
+ pd='2*int((nf+1)/2) * (W/nf + 0.29)' ps='2*int((nf+2)/2) * (W/nf + 0.29)' nrd='0.29 / W' nrs='0.29 / W'
+ sa=0 sb=0 sd=0 mult=1 m=1 
XM5 net1 Ab vdd vdd sky130_fd_pr__pfet_01v8 L=0.15 W=0.9 nf=1 ad='int((nf+1)/2) * W/nf * 0.29' as='int((nf+2)/2) * W/nf * 0.29'
+ pd='2*int((nf+1)/2) * (W/nf + 0.29)' ps='2*int((nf+2)/2) * (W/nf + 0.29)' nrd='0.29 / W' nrs='0.29 / W'
+ sa=0 sb=0 sd=0 mult=1 m=1 
XM6 z b net1 vdd sky130_fd_pr__pfet_01v8 L=0.15 W=0.9 nf=1 ad='int((nf+1)/2) * W/nf * 0.29' as='int((nf+2)/2) * W/nf * 0.29'
+ pd='2*int((nf+1)/2) * (W/nf + 0.29)' ps='2*int((nf+2)/2) * (W/nf + 0.29)' nrd='0.29 / W' nrs='0.29 / W'
+ sa=0 sb=0 sd=0 mult=1 m=1 
XM7 z Ab net3 vss sky130_fd_pr__nfet_01v8 L=0.15 W=0.9 nf=1 ad='int((nf+1)/2) * W/nf * 0.29' as='int((nf+2)/2) * W/nf * 0.29'
+ pd='2*int((nf+1)/2) * (W/nf + 0.29)' ps='2*int((nf+2)/2) * (W/nf + 0.29)' nrd='0.29 / W' nrs='0.29 / W'
+ sa=0 sb=0 sd=0 mult=1 m=1 
XM8 net3 Bb vss vss sky130_fd_pr__nfet_01v8 L=0.15 W=0.9 nf=1 ad='int((nf+1)/2) * W/nf * 0.29' as='int((nf+2)/2) * W/nf * 0.29'
+ pd='2*int((nf+1)/2) * (W/nf + 0.29)' ps='2*int((nf+2)/2) * (W/nf + 0.29)' nrd='0.29 / W' nrs='0.29 / W'
+ sa=0 sb=0 sd=0 mult=1 m=1 
XM9 Ab a vss vss sky130_fd_pr__nfet_01v8 L=0.15 W=0.45 nf=1 ad='int((nf+1)/2) * W/nf * 0.29' as='int((nf+2)/2) * W/nf * 0.29'
+ pd='2*int((nf+1)/2) * (W/nf + 0.29)' ps='2*int((nf+2)/2) * (W/nf + 0.29)' nrd='0.29 / W' nrs='0.29 / W'
+ sa=0 sb=0 sd=0 mult=1 m=1 
XM10 Bb b vss vss sky130_fd_pr__nfet_01v8 L=0.15 W=0.45 nf=1 ad='int((nf+1)/2) * W/nf * 0.29' as='int((nf+2)/2) * W/nf * 0.29'
+ pd='2*int((nf+1)/2) * (W/nf + 0.29)' ps='2*int((nf+2)/2) * (W/nf + 0.29)' nrd='0.29 / W' nrs='0.29 / W'
+ sa=0 sb=0 sd=0 mult=1 m=1 
XM11 z a net2 vss sky130_fd_pr__nfet_01v8 L=0.15 W=0.9 nf=1 ad='int((nf+1)/2) * W/nf * 0.29' as='int((nf+2)/2) * W/nf * 0.29'
+ pd='2*int((nf+1)/2) * (W/nf + 0.29)' ps='2*int((nf+2)/2) * (W/nf + 0.29)' nrd='0.29 / W' nrs='0.29 / W'
+ sa=0 sb=0 sd=0 mult=1 m=1 
XM12 net2 b vss vss sky130_fd_pr__nfet_01v8 L=0.15 W=0.9 nf=1 ad='int((nf+1)/2) * W/nf * 0.29' as='int((nf+2)/2) * W/nf * 0.29'
+ pd='2*int((nf+1)/2) * (W/nf + 0.29)' ps='2*int((nf+2)/2) * (W/nf + 0.29)' nrd='0.29 / W' nrs='0.29 / W'
+ sa=0 sb=0 sd=0 mult=1 m=1 
.ends


* expanding   symbol:  ffdc.sym # of pins=7
* sym_path: /home/fsolis/caravel_eamta_2021/track_vlsi/toplevel_vlsi/sch/ffdc.sym
* sch_path: /home/fsolis/caravel_eamta_2021/track_vlsi/toplevel_vlsi/sch/ffdc.sch
.subckt ffdc  VDD VSS Q D CLK CLR Qb
*.ipin D
*.ipin vdd
*.opin Q
*.opin Qb
*.ipin CLK
*.ipin CLR
*.ipin vss
XM0 net1 CLK D vss sky130_fd_pr__nfet_01v8 L=0.15 W=0.45 nf=1 ad='int((nf+1)/2) * W/nf * 0.29' as='int((nf+2)/2) * W/nf * 0.29'
+ pd='2*int((nf+1)/2) * (W/nf + 0.29)' ps='2*int((nf+2)/2) * (W/nf + 0.29)' nrd='0.29 / W' nrs='0.29 / W'
+ sa=0 sb=0 sd=0 mult=1 m=1 
XM1 D cn net1 vdd sky130_fd_pr__pfet_01v8 L=0.15 W=0.9 nf=1 ad='int((nf+1)/2) * W/nf * 0.29' as='int((nf+2)/2) * W/nf * 0.29'
+ pd='2*int((nf+1)/2) * (W/nf + 0.29)' ps='2*int((nf+2)/2) * (W/nf + 0.29)' nrd='0.29 / W' nrs='0.29 / W'
+ sa=0 sb=0 sd=0 mult=1 m=1 
XM2 net2 net1 vdd vdd sky130_fd_pr__pfet_01v8 L=0.15 W=0.9 nf=1 ad='int((nf+1)/2) * W/nf * 0.29' as='int((nf+2)/2) * W/nf * 0.29'
+ pd='2*int((nf+1)/2) * (W/nf + 0.29)' ps='2*int((nf+2)/2) * (W/nf + 0.29)' nrd='0.29 / W' nrs='0.29 / W'
+ sa=0 sb=0 sd=0 mult=1 m=1 
XM3 net2 net1 vss vss sky130_fd_pr__nfet_01v8 L=0.15 W=0.45 nf=1 ad='int((nf+1)/2) * W/nf * 0.29' as='int((nf+2)/2) * W/nf * 0.29'
+ pd='2*int((nf+1)/2) * (W/nf + 0.29)' ps='2*int((nf+2)/2) * (W/nf + 0.29)' nrd='0.29 / W' nrs='0.29 / W'
+ sa=0 sb=0 sd=0 mult=1 m=1 
XM4 net1 cn net3 vss sky130_fd_pr__nfet_01v8 L=0.15 W=0.45 nf=1 ad='int((nf+1)/2) * W/nf * 0.29' as='int((nf+2)/2) * W/nf * 0.29'
+ pd='2*int((nf+1)/2) * (W/nf + 0.29)' ps='2*int((nf+2)/2) * (W/nf + 0.29)' nrd='0.29 / W' nrs='0.29 / W'
+ sa=0 sb=0 sd=0 mult=1 m=1 
XM5 net3 CLK net1 vdd sky130_fd_pr__pfet_01v8 L=0.15 W=0.9 nf=1 ad='int((nf+1)/2) * W/nf * 0.29' as='int((nf+2)/2) * W/nf * 0.29'
+ pd='2*int((nf+1)/2) * (W/nf + 0.29)' ps='2*int((nf+2)/2) * (W/nf + 0.29)' nrd='0.29 / W' nrs='0.29 / W'
+ sa=0 sb=0 sd=0 mult=1 m=1 
XM6 net4 net2 vdd vdd sky130_fd_pr__pfet_01v8 L=0.15 W=1.8 nf=1 ad='int((nf+1)/2) * W/nf * 0.29' as='int((nf+2)/2) * W/nf * 0.29'
+ pd='2*int((nf+1)/2) * (W/nf + 0.29)' ps='2*int((nf+2)/2) * (W/nf + 0.29)' nrd='0.29 / W' nrs='0.29 / W'
+ sa=0 sb=0 sd=0 mult=1 m=1 
XM7 net3 CLR net4 vdd sky130_fd_pr__pfet_01v8 L=0.15 W=1.8 nf=1 ad='int((nf+1)/2) * W/nf * 0.29' as='int((nf+2)/2) * W/nf * 0.29'
+ pd='2*int((nf+1)/2) * (W/nf + 0.29)' ps='2*int((nf+2)/2) * (W/nf + 0.29)' nrd='0.29 / W' nrs='0.29 / W'
+ sa=0 sb=0 sd=0 mult=1 m=1 
XM8 net3 CLR vss vss sky130_fd_pr__nfet_01v8 L=0.15 W=0.45 nf=1 ad='int((nf+1)/2) * W/nf * 0.29' as='int((nf+2)/2) * W/nf * 0.29'
+ pd='2*int((nf+1)/2) * (W/nf + 0.29)' ps='2*int((nf+2)/2) * (W/nf + 0.29)' nrd='0.29 / W' nrs='0.29 / W'
+ sa=0 sb=0 sd=0 mult=1 m=1 
XM9 net3 net2 vss vss sky130_fd_pr__nfet_01v8 L=0.15 W=0.45 nf=1 ad='int((nf+1)/2) * W/nf * 0.29' as='int((nf+2)/2) * W/nf * 0.29'
+ pd='2*int((nf+1)/2) * (W/nf + 0.29)' ps='2*int((nf+2)/2) * (W/nf + 0.29)' nrd='0.29 / W' nrs='0.29 / W'
+ sa=0 sb=0 sd=0 mult=1 m=1 
XM10 net5 cn net2 vss sky130_fd_pr__nfet_01v8 L=0.15 W=0.45 nf=1 ad='int((nf+1)/2) * W/nf * 0.29' as='int((nf+2)/2) * W/nf * 0.29'
+ pd='2*int((nf+1)/2) * (W/nf + 0.29)' ps='2*int((nf+2)/2) * (W/nf + 0.29)' nrd='0.29 / W' nrs='0.29 / W'
+ sa=0 sb=0 sd=0 mult=1 m=1 
XM11 net2 CLK net5 vdd sky130_fd_pr__pfet_01v8 L=0.15 W=0.9 nf=1 ad='int((nf+1)/2) * W/nf * 0.29' as='int((nf+2)/2) * W/nf * 0.29'
+ pd='2*int((nf+1)/2) * (W/nf + 0.29)' ps='2*int((nf+2)/2) * (W/nf + 0.29)' nrd='0.29 / W' nrs='0.29 / W'
+ sa=0 sb=0 sd=0 mult=1 m=1 
XM12 net6 CLR vdd vdd sky130_fd_pr__pfet_01v8 L=0.15 W=1.8 nf=1 ad='int((nf+1)/2) * W/nf * 0.29' as='int((nf+2)/2) * W/nf * 0.29'
+ pd='2*int((nf+1)/2) * (W/nf + 0.29)' ps='2*int((nf+2)/2) * (W/nf + 0.29)' nrd='0.29 / W' nrs='0.29 / W'
+ sa=0 sb=0 sd=0 mult=1 m=1 
XM13 Q net5 net6 vdd sky130_fd_pr__pfet_01v8 L=0.15 W=1.8 nf=1 ad='int((nf+1)/2) * W/nf * 0.29' as='int((nf+2)/2) * W/nf * 0.29'
+ pd='2*int((nf+1)/2) * (W/nf + 0.29)' ps='2*int((nf+2)/2) * (W/nf + 0.29)' nrd='0.29 / W' nrs='0.29 / W'
+ sa=0 sb=0 sd=0 mult=1 m=1 
XM14 Q net5 vss vss sky130_fd_pr__nfet_01v8 L=0.15 W=0.45 nf=1 ad='int((nf+1)/2) * W/nf * 0.29' as='int((nf+2)/2) * W/nf * 0.29'
+ pd='2*int((nf+1)/2) * (W/nf + 0.29)' ps='2*int((nf+2)/2) * (W/nf + 0.29)' nrd='0.29 / W' nrs='0.29 / W'
+ sa=0 sb=0 sd=0 mult=1 m=1 
XM15 Q CLR vss vss sky130_fd_pr__nfet_01v8 L=0.15 W=0.45 nf=1 ad='int((nf+1)/2) * W/nf * 0.29' as='int((nf+2)/2) * W/nf * 0.29'
+ pd='2*int((nf+1)/2) * (W/nf + 0.29)' ps='2*int((nf+2)/2) * (W/nf + 0.29)' nrd='0.29 / W' nrs='0.29 / W'
+ sa=0 sb=0 sd=0 mult=1 m=1 
XM16 Qb Q vdd vdd sky130_fd_pr__pfet_01v8 L=0.15 W=0.9 nf=1 ad='int((nf+1)/2) * W/nf * 0.29' as='int((nf+2)/2) * W/nf * 0.29'
+ pd='2*int((nf+1)/2) * (W/nf + 0.29)' ps='2*int((nf+2)/2) * (W/nf + 0.29)' nrd='0.29 / W' nrs='0.29 / W'
+ sa=0 sb=0 sd=0 mult=1 m=1 
XM17 Qb Q vss vss sky130_fd_pr__nfet_01v8 L=0.15 W=0.45 nf=1 ad='int((nf+1)/2) * W/nf * 0.29' as='int((nf+2)/2) * W/nf * 0.29'
+ pd='2*int((nf+1)/2) * (W/nf + 0.29)' ps='2*int((nf+2)/2) * (W/nf + 0.29)' nrd='0.29 / W' nrs='0.29 / W'
+ sa=0 sb=0 sd=0 mult=1 m=1 
XM18 net5 CLK Qb vss sky130_fd_pr__nfet_01v8 L=0.15 W=0.45 nf=1 ad='int((nf+1)/2) * W/nf * 0.29' as='int((nf+2)/2) * W/nf * 0.29'
+ pd='2*int((nf+1)/2) * (W/nf + 0.29)' ps='2*int((nf+2)/2) * (W/nf + 0.29)' nrd='0.29 / W' nrs='0.29 / W'
+ sa=0 sb=0 sd=0 mult=1 m=1 
XM19 Qb cn net5 vdd sky130_fd_pr__pfet_01v8 L=0.15 W=0.9 nf=1 ad='int((nf+1)/2) * W/nf * 0.29' as='int((nf+2)/2) * W/nf * 0.29'
+ pd='2*int((nf+1)/2) * (W/nf + 0.29)' ps='2*int((nf+2)/2) * (W/nf + 0.29)' nrd='0.29 / W' nrs='0.29 / W'
+ sa=0 sb=0 sd=0 mult=1 m=1 
XM20 cn CLK vdd vdd sky130_fd_pr__pfet_01v8 L=0.15 W=0.9 nf=1 ad='int((nf+1)/2) * W/nf * 0.29' as='int((nf+2)/2) * W/nf * 0.29'
+ pd='2*int((nf+1)/2) * (W/nf + 0.29)' ps='2*int((nf+2)/2) * (W/nf + 0.29)' nrd='0.29 / W' nrs='0.29 / W'
+ sa=0 sb=0 sd=0 mult=1 m=1 
XM21 cn CLK vss vss sky130_fd_pr__nfet_01v8 L=0.15 W=0.45 nf=1 ad='int((nf+1)/2) * W/nf * 0.29' as='int((nf+2)/2) * W/nf * 0.29'
+ pd='2*int((nf+1)/2) * (W/nf + 0.29)' ps='2*int((nf+2)/2) * (W/nf + 0.29)' nrd='0.29 / W' nrs='0.29 / W'
+ sa=0 sb=0 sd=0 mult=1 m=1 
.ends


* expanding   symbol:  c2b.sym # of pins=8
* sym_path: /home/fsolis/caravel_eamta_2021/track_vlsi/toplevel_vlsi/sch/c2b.sym
* sch_path: /home/fsolis/caravel_eamta_2021/track_vlsi/toplevel_vlsi/sch/c2b.sch
.subckt c2b  ce clk clr vdd vss b0 b1 out
*.ipin ce
*.ipin clk
*.ipin clr
*.ipin vdd
*.ipin vss
*.opin b1
*.opin b0
*.opin out
x1 ce clk clr vdd vss b0 net1 c1b
x2 net1 clk clr vdd vss b1 out c1b
.ends


* expanding   symbol:  dffc_somo.sym # of pins=7
* sym_path: /home/fsolis/caravel_eamta_2021/track_vlsi/toplevel_vlsi/sch/dffc_somo.sym
* sch_path: /home/fsolis/caravel_eamta_2021/track_vlsi/toplevel_vlsi/sch/dffc_somo.sch
.subckt dffc_somo  Q vdd vss D CLR CLK Qb
*.ipin vdd
*.ipin vss
*.ipin D
*.ipin CLR
*.ipin CLK
*.opin Q
*.opin Qb
XM21 n_CLK CLK vss vss sky130_fd_pr__nfet_01v8 L=0.15 W=0.45 nf=1 ad='int((nf+1)/2) * W/nf * 0.29' as='int((nf+2)/2) * W/nf * 0.29'
+ pd='2*int((nf+1)/2) * (W/nf + 0.29)' ps='2*int((nf+2)/2) * (W/nf + 0.29)' nrd='0.29 / W' nrs='0.29 / W'
+ sa=0 sb=0 sd=0 mult=1 m=1 
XM20 n_CLK CLK vdd vdd sky130_fd_pr__pfet_01v8 L=0.15 W=0.9 nf=1 ad='int((nf+1)/2) * W/nf * 0.29' as='int((nf+2)/2) * W/nf * 0.29'
+ pd='2*int((nf+1)/2) * (W/nf + 0.29)' ps='2*int((nf+2)/2) * (W/nf + 0.29)' nrd='0.29 / W' nrs='0.29 / W'
+ sa=0 sb=0 sd=0 mult=1 m=1 
XM1 net1 n_CLK D vdd sky130_fd_pr__pfet_01v8 L=0.15 W=0.9 nf=1 ad='int((nf+1)/2) * W/nf * 0.29' as='int((nf+2)/2) * W/nf * 0.29'
+ pd='2*int((nf+1)/2) * (W/nf + 0.29)' ps='2*int((nf+2)/2) * (W/nf + 0.29)' nrd='0.29 / W' nrs='0.29 / W'
+ sa=0 sb=0 sd=0 mult=1 m=1 
XM0 D CLK net1 vss sky130_fd_pr__nfet_01v8 L=0.15 W=0.45 nf=1 ad='int((nf+1)/2) * W/nf * 0.29' as='int((nf+2)/2) * W/nf * 0.29'
+ pd='2*int((nf+1)/2) * (W/nf + 0.29)' ps='2*int((nf+2)/2) * (W/nf + 0.29)' nrd='0.29 / W' nrs='0.29 / W'
+ sa=0 sb=0 sd=0 mult=1 m=1 
XM3 net2 net1 vss vss sky130_fd_pr__nfet_01v8 L=0.15 W=0.45 nf=1 ad='int((nf+1)/2) * W/nf * 0.29' as='int((nf+2)/2) * W/nf * 0.29'
+ pd='2*int((nf+1)/2) * (W/nf + 0.29)' ps='2*int((nf+2)/2) * (W/nf + 0.29)' nrd='0.29 / W' nrs='0.29 / W'
+ sa=0 sb=0 sd=0 mult=1 m=1 
XM2 net2 net1 vdd vdd sky130_fd_pr__pfet_01v8 L=0.15 W=0.9 nf=1 ad='int((nf+1)/2) * W/nf * 0.29' as='int((nf+2)/2) * W/nf * 0.29'
+ pd='2*int((nf+1)/2) * (W/nf + 0.29)' ps='2*int((nf+2)/2) * (W/nf + 0.29)' nrd='0.29 / W' nrs='0.29 / W'
+ sa=0 sb=0 sd=0 mult=1 m=1 
XM11 net3 CLK net2 vdd sky130_fd_pr__pfet_01v8 L=0.15 W=0.9 nf=1 ad='int((nf+1)/2) * W/nf * 0.29' as='int((nf+2)/2) * W/nf * 0.29'
+ pd='2*int((nf+1)/2) * (W/nf + 0.29)' ps='2*int((nf+2)/2) * (W/nf + 0.29)' nrd='0.29 / W' nrs='0.29 / W'
+ sa=0 sb=0 sd=0 mult=1 m=1 
XM10 net2 n_CLK net3 vss sky130_fd_pr__nfet_01v8 L=0.15 W=0.45 nf=1 ad='int((nf+1)/2) * W/nf * 0.29'
+ as='int((nf+2)/2) * W/nf * 0.29' pd='2*int((nf+1)/2) * (W/nf + 0.29)' ps='2*int((nf+2)/2) * (W/nf + 0.29)'
+ nrd='0.29 / W' nrs='0.29 / W' sa=0 sb=0 sd=0 mult=1 m=1 
XM5 net4 CLK net1 vdd sky130_fd_pr__pfet_01v8 L=0.15 W=0.9 nf=1 ad='int((nf+1)/2) * W/nf * 0.29' as='int((nf+2)/2) * W/nf * 0.29'
+ pd='2*int((nf+1)/2) * (W/nf + 0.29)' ps='2*int((nf+2)/2) * (W/nf + 0.29)' nrd='0.29 / W' nrs='0.29 / W'
+ sa=0 sb=0 sd=0 mult=1 m=1 
XM4 net1 n_CLK net4 vss sky130_fd_pr__nfet_01v8 L=0.15 W=0.45 nf=1 ad='int((nf+1)/2) * W/nf * 0.29' as='int((nf+2)/2) * W/nf * 0.29'
+ pd='2*int((nf+1)/2) * (W/nf + 0.29)' ps='2*int((nf+2)/2) * (W/nf + 0.29)' nrd='0.29 / W' nrs='0.29 / W'
+ sa=0 sb=0 sd=0 mult=1 m=1 
XM13 Q net3 net5 vdd sky130_fd_pr__pfet_01v8 L=0.15 W=1.8 nf=1 ad='int((nf+1)/2) * W/nf * 0.29' as='int((nf+2)/2) * W/nf * 0.29'
+ pd='2*int((nf+1)/2) * (W/nf + 0.29)' ps='2*int((nf+2)/2) * (W/nf + 0.29)' nrd='0.29 / W' nrs='0.29 / W'
+ sa=0 sb=0 sd=0 mult=1 m=1 
XM12 net5 CLR vdd vdd sky130_fd_pr__pfet_01v8 L=0.15 W=1.8 nf=1 ad='int((nf+1)/2) * W/nf * 0.29' as='int((nf+2)/2) * W/nf * 0.29'
+ pd='2*int((nf+1)/2) * (W/nf + 0.29)' ps='2*int((nf+2)/2) * (W/nf + 0.29)' nrd='0.29 / W' nrs='0.29 / W'
+ sa=0 sb=0 sd=0 mult=1 m=1 
XM8 net4 CLR vss vss sky130_fd_pr__nfet_01v8 L=0.15 W=0.45 nf=1 ad='int((nf+1)/2) * W/nf * 0.29' as='int((nf+2)/2) * W/nf * 0.29'
+ pd='2*int((nf+1)/2) * (W/nf + 0.29)' ps='2*int((nf+2)/2) * (W/nf + 0.29)' nrd='0.29 / W' nrs='0.29 / W'
+ sa=0 sb=0 sd=0 mult=1 m=1 
XM7 net4 CLR net6 vdd sky130_fd_pr__pfet_01v8 L=0.15 W=1.8 nf=1 ad='int((nf+1)/2) * W/nf * 0.29' as='int((nf+2)/2) * W/nf * 0.29'
+ pd='2*int((nf+1)/2) * (W/nf + 0.29)' ps='2*int((nf+2)/2) * (W/nf + 0.29)' nrd='0.29 / W' nrs='0.29 / W'
+ sa=0 sb=0 sd=0 mult=1 m=1 
XM6 net6 net2 vdd vdd sky130_fd_pr__pfet_01v8 L=0.15 W=1.8 nf=1 ad='int((nf+1)/2) * W/nf * 0.29' as='int((nf+2)/2) * W/nf * 0.29'
+ pd='2*int((nf+1)/2) * (W/nf + 0.29)' ps='2*int((nf+2)/2) * (W/nf + 0.29)' nrd='0.29 / W' nrs='0.29 / W'
+ sa=0 sb=0 sd=0 mult=1 m=1 
XM9 net4 net2 vss vss sky130_fd_pr__nfet_01v8 L=0.15 W=0.45 nf=1 ad='int((nf+1)/2) * W/nf * 0.29' as='int((nf+2)/2) * W/nf * 0.29'
+ pd='2*int((nf+1)/2) * (W/nf + 0.29)' ps='2*int((nf+2)/2) * (W/nf + 0.29)' nrd='0.29 / W' nrs='0.29 / W'
+ sa=0 sb=0 sd=0 mult=1 m=1 
XM14 Q net3 vss vss sky130_fd_pr__nfet_01v8 L=0.15 W=0.45 nf=1 ad='int((nf+1)/2) * W/nf * 0.29' as='int((nf+2)/2) * W/nf * 0.29'
+ pd='2*int((nf+1)/2) * (W/nf + 0.29)' ps='2*int((nf+2)/2) * (W/nf + 0.29)' nrd='0.29 / W' nrs='0.29 / W'
+ sa=0 sb=0 sd=0 mult=1 m=1 
XM15 Q CLR vss vss sky130_fd_pr__nfet_01v8 L=0.15 W=0.45 nf=1 ad='int((nf+1)/2) * W/nf * 0.29' as='int((nf+2)/2) * W/nf * 0.29'
+ pd='2*int((nf+1)/2) * (W/nf + 0.29)' ps='2*int((nf+2)/2) * (W/nf + 0.29)' nrd='0.29 / W' nrs='0.29 / W'
+ sa=0 sb=0 sd=0 mult=1 m=1 
XM19 Qb n_CLK net3 vdd sky130_fd_pr__pfet_01v8 L=0.15 W=0.9 nf=1 ad='int((nf+1)/2) * W/nf * 0.29' as='int((nf+2)/2) * W/nf * 0.29'
+ pd='2*int((nf+1)/2) * (W/nf + 0.29)' ps='2*int((nf+2)/2) * (W/nf + 0.29)' nrd='0.29 / W' nrs='0.29 / W'
+ sa=0 sb=0 sd=0 mult=1 m=1 
XM18 net3 CLK Qb vss sky130_fd_pr__nfet_01v8 L=0.15 W=0.45 nf=1 ad='int((nf+1)/2) * W/nf * 0.29' as='int((nf+2)/2) * W/nf * 0.29'
+ pd='2*int((nf+1)/2) * (W/nf + 0.29)' ps='2*int((nf+2)/2) * (W/nf + 0.29)' nrd='0.29 / W' nrs='0.29 / W'
+ sa=0 sb=0 sd=0 mult=1 m=1 
XM17 Qb Q vss vss sky130_fd_pr__nfet_01v8 L=0.15 W=0.45 nf=1 ad='int((nf+1)/2) * W/nf * 0.29' as='int((nf+2)/2) * W/nf * 0.29'
+ pd='2*int((nf+1)/2) * (W/nf + 0.29)' ps='2*int((nf+2)/2) * (W/nf + 0.29)' nrd='0.29 / W' nrs='0.29 / W'
+ sa=0 sb=0 sd=0 mult=1 m=1 
XM16 Qb Q vdd vdd sky130_fd_pr__pfet_01v8 L=0.15 W=0.9 nf=1 ad='int((nf+1)/2) * W/nf * 0.29' as='int((nf+2)/2) * W/nf * 0.29'
+ pd='2*int((nf+1)/2) * (W/nf + 0.29)' ps='2*int((nf+2)/2) * (W/nf + 0.29)' nrd='0.29 / W' nrs='0.29 / W'
+ sa=0 sb=0 sd=0 mult=1 m=1 
.ends


* expanding   symbol:  and_somo.sym # of pins=5
* sym_path: /home/fsolis/caravel_eamta_2021/track_vlsi/toplevel_vlsi/sch/and_somo.sym
* sch_path: /home/fsolis/caravel_eamta_2021/track_vlsi/toplevel_vlsi/sch/and_somo.sch
.subckt and_somo  vdd A Z B vss
*.ipin A
*.ipin B
*.ipin vdd
*.opin Z
*.ipin vss
XM2 net1 A net2 vss sky130_fd_pr__nfet_01v8 L=0.15 W=0.9 nf=1 ad='int((nf+1)/2) * W/nf * 0.29' as='int((nf+2)/2) * W/nf * 0.29'
+ pd='2*int((nf+1)/2) * (W/nf + 0.29)' ps='2*int((nf+2)/2) * (W/nf + 0.29)' nrd='0.29 / W' nrs='0.29 / W'
+ sa=0 sb=0 sd=0 mult=1 m=1 
XM3 net2 B vss vss sky130_fd_pr__nfet_01v8 L=0.15 W=0.9 nf=1 ad='int((nf+1)/2) * W/nf * 0.29' as='int((nf+2)/2) * W/nf * 0.29'
+ pd='2*int((nf+1)/2) * (W/nf + 0.29)' ps='2*int((nf+2)/2) * (W/nf + 0.29)' nrd='0.29 / W' nrs='0.29 / W'
+ sa=0 sb=0 sd=0 mult=1 m=1 
XM1 net1 A vdd vdd sky130_fd_pr__pfet_01v8 L=0.15 W=0.9 nf=1 ad='int((nf+1)/2) * W/nf * 0.29' as='int((nf+2)/2) * W/nf * 0.29'
+ pd='2*int((nf+1)/2) * (W/nf + 0.29)' ps='2*int((nf+2)/2) * (W/nf + 0.29)' nrd='0.29 / W' nrs='0.29 / W'
+ sa=0 sb=0 sd=0 mult=1 m=1 
XM0 net1 B vdd vdd sky130_fd_pr__pfet_01v8 L=0.15 W=0.9 nf=1 ad='int((nf+1)/2) * W/nf * 0.29' as='int((nf+2)/2) * W/nf * 0.29'
+ pd='2*int((nf+1)/2) * (W/nf + 0.29)' ps='2*int((nf+2)/2) * (W/nf + 0.29)' nrd='0.29 / W' nrs='0.29 / W'
+ sa=0 sb=0 sd=0 mult=1 m=1 
XM4 Z net1 vdd vdd sky130_fd_pr__pfet_01v8 L=0.15 W=0.9 nf=1 ad='int((nf+1)/2) * W/nf * 0.29' as='int((nf+2)/2) * W/nf * 0.29'
+ pd='2*int((nf+1)/2) * (W/nf + 0.29)' ps='2*int((nf+2)/2) * (W/nf + 0.29)' nrd='0.29 / W' nrs='0.29 / W'
+ sa=0 sb=0 sd=0 mult=1 m=1 
XM5 Z net1 vss vss sky130_fd_pr__nfet_01v8 L=0.15 W=0.45 nf=1 ad='int((nf+1)/2) * W/nf * 0.29' as='int((nf+2)/2) * W/nf * 0.29'
+ pd='2*int((nf+1)/2) * (W/nf + 0.29)' ps='2*int((nf+2)/2) * (W/nf + 0.29)' nrd='0.29 / W' nrs='0.29 / W'
+ sa=0 sb=0 sd=0 mult=1 m=1 
.ends


* expanding   symbol:  xor_somo.sym # of pins=5
* sym_path: /home/fsolis/caravel_eamta_2021/track_vlsi/toplevel_vlsi/sch/xor_somo.sym
* sch_path: /home/fsolis/caravel_eamta_2021/track_vlsi/toplevel_vlsi/sch/xor_somo.sch
.subckt xor_somo  Z A B vdd vss
*.ipin A
*.ipin B
*.ipin vdd
*.ipin vss
*.opin Z
XM0 Z Bb medio vdd sky130_fd_pr__pfet_01v8 L=0.15 W=0.9 nf=1 ad='int((nf+1)/2) * W/nf * 0.29' as='int((nf+2)/2) * W/nf * 0.29'
+ pd='2*int((nf+1)/2) * (W/nf + 0.29)' ps='2*int((nf+2)/2) * (W/nf + 0.29)' nrd='0.29 / W' nrs='0.29 / W'
+ sa=0 sb=0 sd=0 mult=1 m=1 
XM4 Z Ab net1 vss sky130_fd_pr__nfet_01v8 L=0.15 W=0.9 nf=1 ad='int((nf+1)/2) * W/nf * 0.29' as='int((nf+2)/2) * W/nf * 0.29'
+ pd='2*int((nf+1)/2) * (W/nf + 0.29)' ps='2*int((nf+2)/2) * (W/nf + 0.29)' nrd='0.29 / W' nrs='0.29 / W'
+ sa=0 sb=0 sd=0 mult=1 m=1 
XM6 net1 Bb vss vss sky130_fd_pr__nfet_01v8 L=0.15 W=0.9 nf=1 ad='int((nf+1)/2) * W/nf * 0.29' as='int((nf+2)/2) * W/nf * 0.29'
+ pd='2*int((nf+1)/2) * (W/nf + 0.29)' ps='2*int((nf+2)/2) * (W/nf + 0.29)' nrd='0.29 / W' nrs='0.29 / W'
+ sa=0 sb=0 sd=0 mult=1 m=1 
XM5 Z A net2 vss sky130_fd_pr__nfet_01v8 L=0.15 W=0.9 nf=1 ad='int((nf+1)/2) * W/nf * 0.29' as='int((nf+2)/2) * W/nf * 0.29'
+ pd='2*int((nf+1)/2) * (W/nf + 0.29)' ps='2*int((nf+2)/2) * (W/nf + 0.29)' nrd='0.29 / W' nrs='0.29 / W'
+ sa=0 sb=0 sd=0 mult=1 m=1 
XM7 net2 B vss vss sky130_fd_pr__nfet_01v8 L=0.15 W=0.9 nf=1 ad='int((nf+1)/2) * W/nf * 0.29' as='int((nf+2)/2) * W/nf * 0.29'
+ pd='2*int((nf+1)/2) * (W/nf + 0.29)' ps='2*int((nf+2)/2) * (W/nf + 0.29)' nrd='0.29 / W' nrs='0.29 / W'
+ sa=0 sb=0 sd=0 mult=1 m=1 
XM8 Ab A vdd vdd sky130_fd_pr__pfet_01v8 L=0.15 W=0.9 nf=1 ad='int((nf+1)/2) * W/nf * 0.29' as='int((nf+2)/2) * W/nf * 0.29'
+ pd='2*int((nf+1)/2) * (W/nf + 0.29)' ps='2*int((nf+2)/2) * (W/nf + 0.29)' nrd='0.29 / W' nrs='0.29 / W'
+ sa=0 sb=0 sd=0 mult=1 m=1 
XM10 Bb B vdd vdd sky130_fd_pr__pfet_01v8 L=0.15 W=0.9 nf=1 ad='int((nf+1)/2) * W/nf * 0.29' as='int((nf+2)/2) * W/nf * 0.29'
+ pd='2*int((nf+1)/2) * (W/nf + 0.29)' ps='2*int((nf+2)/2) * (W/nf + 0.29)' nrd='0.29 / W' nrs='0.29 / W'
+ sa=0 sb=0 sd=0 mult=1 m=1 
XM9 Ab A vss vss sky130_fd_pr__nfet_01v8 L=0.15 W=0.45 nf=1 ad='int((nf+1)/2) * W/nf * 0.29' as='int((nf+2)/2) * W/nf * 0.29'
+ pd='2*int((nf+1)/2) * (W/nf + 0.29)' ps='2*int((nf+2)/2) * (W/nf + 0.29)' nrd='0.29 / W' nrs='0.29 / W'
+ sa=0 sb=0 sd=0 mult=1 m=1 
XM11 Bb B vss vss sky130_fd_pr__nfet_01v8 L=0.15 W=0.45 nf=1 ad='int((nf+1)/2) * W/nf * 0.29' as='int((nf+2)/2) * W/nf * 0.29'
+ pd='2*int((nf+1)/2) * (W/nf + 0.29)' ps='2*int((nf+2)/2) * (W/nf + 0.29)' nrd='0.29 / W' nrs='0.29 / W'
+ sa=0 sb=0 sd=0 mult=1 m=1 
XM2 medio A vdd vdd sky130_fd_pr__pfet_01v8 L=0.15 W=0.9 nf=1 ad='int((nf+1)/2) * W/nf * 0.29' as='int((nf+2)/2) * W/nf * 0.29'
+ pd='2*int((nf+1)/2) * (W/nf + 0.29)' ps='2*int((nf+2)/2) * (W/nf + 0.29)' nrd='0.29 / W' nrs='0.29 / W'
+ sa=0 sb=0 sd=0 mult=1 m=1 
XM1 Z Ab medio vdd sky130_fd_pr__pfet_01v8 L=0.15 W=0.9 nf=1 ad='int((nf+1)/2) * W/nf * 0.29' as='int((nf+2)/2) * W/nf * 0.29'
+ pd='2*int((nf+1)/2) * (W/nf + 0.29)' ps='2*int((nf+2)/2) * (W/nf + 0.29)' nrd='0.29 / W' nrs='0.29 / W'
+ sa=0 sb=0 sd=0 mult=1 m=1 
XM3 medio B vdd vdd sky130_fd_pr__pfet_01v8 L=0.15 W=0.9 nf=1 ad='int((nf+1)/2) * W/nf * 0.29' as='int((nf+2)/2) * W/nf * 0.29'
+ pd='2*int((nf+1)/2) * (W/nf + 0.29)' ps='2*int((nf+2)/2) * (W/nf + 0.29)' nrd='0.29 / W' nrs='0.29 / W'
+ sa=0 sb=0 sd=0 mult=1 m=1 
.ends


* expanding   symbol:  contador1bit.sym # of pins=7
* sym_path: /home/fsolis/caravel_eamta_2021/track_vlsi/toplevel_vlsi/sch/contador1bit.sym
* sch_path: /home/fsolis/caravel_eamta_2021/track_vlsi/toplevel_vlsi/sch/contador1bit.sch
.subckt contador1bit  vdd Q Sout CLK CLR CE vss
*.opin Sout
*.ipin CE
*.ipin CLR
*.ipin CLK
*.ipin vdd
*.ipin vss
*.opin Q
x1 vdd CE Sout Q vss and_lafe
x2 vdd Q CE net1 vss xor_lafe