* NGSPICE file created from /home/eamta/caravel_eamta_2021/mag/opamp_ramiro.ext - technology: sky130A

.subckt sky130_fd_pr__pfet_01v8_lvt_CWLY9J VSUBS a_n29_n735# a_269_n735# a_29_n832#
+ a_n327_n735# w_n465_n954# a_n269_n832#
X0 a_n29_n735# a_n269_n832# a_n327_n735# w_n465_n954# sky130_fd_pr__pfet_01v8_lvt ad=2.1315e+12p pd=1.528e+07u as=2.1315e+12p ps=1.528e+07u w=7.35e+06u l=1.2e+06u
X1 a_269_n735# a_29_n832# a_n29_n735# w_n465_n954# sky130_fd_pr__pfet_01v8_lvt ad=2.1315e+12p pd=1.528e+07u as=0p ps=0u w=7.35e+06u l=1.2e+06u
.ends

.subckt sky130_fd_pr__nfet_01v8_ZWZ6GW a_n325_n420# a_119_n420# a_325_n508# a_n267_n508#
+ a_563_n420# a_n177_n420# a_177_n508# a_n119_n508# a_n621_n420# a_415_n420# a_n563_n508#
+ w_n759_n630# a_n29_n420# a_29_n508# a_n473_n420# a_473_n508# a_267_n420# a_n415_n508#
X0 a_563_n420# a_473_n508# a_415_n420# w_n759_n630# sky130_fd_pr__nfet_01v8 ad=1.218e+12p pd=8.98e+06u as=1.218e+12p ps=8.98e+06u w=4.2e+06u l=450000u
X1 a_267_n420# a_177_n508# a_119_n420# w_n759_n630# sky130_fd_pr__nfet_01v8 ad=1.218e+12p pd=8.98e+06u as=1.218e+12p ps=8.98e+06u w=4.2e+06u l=450000u
X2 a_n473_n420# a_n563_n508# a_n621_n420# w_n759_n630# sky130_fd_pr__nfet_01v8 ad=1.218e+12p pd=8.98e+06u as=1.218e+12p ps=8.98e+06u w=4.2e+06u l=450000u
X3 a_n177_n420# a_n267_n508# a_n325_n420# w_n759_n630# sky130_fd_pr__nfet_01v8 ad=1.218e+12p pd=8.98e+06u as=1.218e+12p ps=8.98e+06u w=4.2e+06u l=450000u
X4 a_415_n420# a_325_n508# a_267_n420# w_n759_n630# sky130_fd_pr__nfet_01v8 ad=0p pd=0u as=0p ps=0u w=4.2e+06u l=450000u
X5 a_n325_n420# a_n415_n508# a_n473_n420# w_n759_n630# sky130_fd_pr__nfet_01v8 ad=0p pd=0u as=0p ps=0u w=4.2e+06u l=450000u
X6 a_n29_n420# a_n119_n508# a_n177_n420# w_n759_n630# sky130_fd_pr__nfet_01v8 ad=1.218e+12p pd=8.98e+06u as=0p ps=0u w=4.2e+06u l=450000u
X7 a_119_n420# a_29_n508# a_n29_n420# w_n759_n630# sky130_fd_pr__nfet_01v8 ad=0p pd=0u as=0p ps=0u w=4.2e+06u l=450000u
.ends

.subckt input vss vin_n vin_p iref vout
Xsky130_fd_pr__pfet_01v8_lvt_CWLY9J_0[0|0] vss iref vout_n vin_n vout iref vin_p sky130_fd_pr__pfet_01v8_lvt_CWLY9J
Xsky130_fd_pr__pfet_01v8_lvt_CWLY9J_0[1|0] vss iref vout_n vin_n vout iref vin_p sky130_fd_pr__pfet_01v8_lvt_CWLY9J
Xsky130_fd_pr__pfet_01v8_lvt_CWLY9J_0[2|0] vss iref vout_n vin_n vout iref vin_p sky130_fd_pr__pfet_01v8_lvt_CWLY9J
Xsky130_fd_pr__pfet_01v8_lvt_CWLY9J_0[3|0] vss iref vout_n vin_n vout iref vin_p sky130_fd_pr__pfet_01v8_lvt_CWLY9J
Xsky130_fd_pr__pfet_01v8_lvt_CWLY9J_0[4|0] vss iref vout_n vin_n vout iref vin_p sky130_fd_pr__pfet_01v8_lvt_CWLY9J
Xsky130_fd_pr__pfet_01v8_lvt_CWLY9J_0[0|1] vss iref vout_n vin_n vout iref vin_p sky130_fd_pr__pfet_01v8_lvt_CWLY9J
Xsky130_fd_pr__pfet_01v8_lvt_CWLY9J_0[1|1] vss iref vout_n vin_n vout iref vin_p sky130_fd_pr__pfet_01v8_lvt_CWLY9J
Xsky130_fd_pr__pfet_01v8_lvt_CWLY9J_0[2|1] vss iref vout_n vin_n vout iref vin_p sky130_fd_pr__pfet_01v8_lvt_CWLY9J
Xsky130_fd_pr__pfet_01v8_lvt_CWLY9J_0[3|1] vss iref vout_n vin_n vout iref vin_p sky130_fd_pr__pfet_01v8_lvt_CWLY9J
Xsky130_fd_pr__pfet_01v8_lvt_CWLY9J_0[4|1] vss iref vout_n vin_n vout iref vin_p sky130_fd_pr__pfet_01v8_lvt_CWLY9J
Xsky130_fd_pr__pfet_01v8_lvt_CWLY9J_0[0|2] vss iref vout_n vin_n vout iref vin_p sky130_fd_pr__pfet_01v8_lvt_CWLY9J
Xsky130_fd_pr__pfet_01v8_lvt_CWLY9J_0[1|2] vss iref vout_n vin_n vout iref vin_p sky130_fd_pr__pfet_01v8_lvt_CWLY9J
Xsky130_fd_pr__pfet_01v8_lvt_CWLY9J_0[2|2] vss iref vout_n vin_n vout iref vin_p sky130_fd_pr__pfet_01v8_lvt_CWLY9J
Xsky130_fd_pr__pfet_01v8_lvt_CWLY9J_0[3|2] vss iref vout_n vin_n vout iref vin_p sky130_fd_pr__pfet_01v8_lvt_CWLY9J
Xsky130_fd_pr__pfet_01v8_lvt_CWLY9J_0[4|2] vss iref vout_n vin_n vout iref vin_p sky130_fd_pr__pfet_01v8_lvt_CWLY9J
Xsky130_fd_pr__pfet_01v8_lvt_CWLY9J_0[0|3] vss iref vout_n vin_n vout iref vin_p sky130_fd_pr__pfet_01v8_lvt_CWLY9J
Xsky130_fd_pr__pfet_01v8_lvt_CWLY9J_0[1|3] vss iref vout_n vin_n vout iref vin_p sky130_fd_pr__pfet_01v8_lvt_CWLY9J
Xsky130_fd_pr__pfet_01v8_lvt_CWLY9J_0[2|3] vss iref vout_n vin_n vout iref vin_p sky130_fd_pr__pfet_01v8_lvt_CWLY9J
Xsky130_fd_pr__pfet_01v8_lvt_CWLY9J_0[3|3] vss iref vout_n vin_n vout iref vin_p sky130_fd_pr__pfet_01v8_lvt_CWLY9J
Xsky130_fd_pr__pfet_01v8_lvt_CWLY9J_0[4|3] vss iref vout_n vin_n vout iref vin_p sky130_fd_pr__pfet_01v8_lvt_CWLY9J
Xsky130_fd_pr__pfet_01v8_lvt_CWLY9J_0[0|4] vss iref vout_n vin_n vout iref vin_p sky130_fd_pr__pfet_01v8_lvt_CWLY9J
Xsky130_fd_pr__pfet_01v8_lvt_CWLY9J_0[1|4] vss iref vout_n vin_n vout iref vin_p sky130_fd_pr__pfet_01v8_lvt_CWLY9J
Xsky130_fd_pr__pfet_01v8_lvt_CWLY9J_0[2|4] vss iref vout_n vin_n vout iref vin_p sky130_fd_pr__pfet_01v8_lvt_CWLY9J
Xsky130_fd_pr__pfet_01v8_lvt_CWLY9J_0[3|4] vss iref vout_n vin_n vout iref vin_p sky130_fd_pr__pfet_01v8_lvt_CWLY9J
Xsky130_fd_pr__pfet_01v8_lvt_CWLY9J_0[4|4] vss iref vout_n vin_n vout iref vin_p sky130_fd_pr__pfet_01v8_lvt_CWLY9J
Xsky130_fd_pr__pfet_01v8_lvt_CWLY9J_0[0|5] vss iref vout_n vin_n vout iref vin_p sky130_fd_pr__pfet_01v8_lvt_CWLY9J
Xsky130_fd_pr__pfet_01v8_lvt_CWLY9J_0[1|5] vss iref vout_n vin_n vout iref vin_p sky130_fd_pr__pfet_01v8_lvt_CWLY9J
Xsky130_fd_pr__pfet_01v8_lvt_CWLY9J_0[2|5] vss iref vout_n vin_n vout iref vin_p sky130_fd_pr__pfet_01v8_lvt_CWLY9J
Xsky130_fd_pr__pfet_01v8_lvt_CWLY9J_0[3|5] vss iref vout_n vin_n vout iref vin_p sky130_fd_pr__pfet_01v8_lvt_CWLY9J
Xsky130_fd_pr__pfet_01v8_lvt_CWLY9J_0[4|5] vss iref vout_n vin_n vout iref vin_p sky130_fd_pr__pfet_01v8_lvt_CWLY9J
Xsky130_fd_pr__pfet_01v8_lvt_CWLY9J_0[0|6] vss iref vout_n vin_n vout iref vin_p sky130_fd_pr__pfet_01v8_lvt_CWLY9J
Xsky130_fd_pr__pfet_01v8_lvt_CWLY9J_0[1|6] vss iref vout_n vin_n vout iref vin_p sky130_fd_pr__pfet_01v8_lvt_CWLY9J
Xsky130_fd_pr__pfet_01v8_lvt_CWLY9J_0[2|6] vss iref vout_n vin_n vout iref vin_p sky130_fd_pr__pfet_01v8_lvt_CWLY9J
Xsky130_fd_pr__pfet_01v8_lvt_CWLY9J_0[3|6] vss iref vout_n vin_n vout iref vin_p sky130_fd_pr__pfet_01v8_lvt_CWLY9J
Xsky130_fd_pr__pfet_01v8_lvt_CWLY9J_0[4|6] vss iref vout_n vin_n vout iref vin_p sky130_fd_pr__pfet_01v8_lvt_CWLY9J
Xsky130_fd_pr__pfet_01v8_lvt_CWLY9J_0[0|7] vss iref vout_n vin_n vout iref vin_p sky130_fd_pr__pfet_01v8_lvt_CWLY9J
Xsky130_fd_pr__pfet_01v8_lvt_CWLY9J_0[1|7] vss iref vout_n vin_n vout iref vin_p sky130_fd_pr__pfet_01v8_lvt_CWLY9J
Xsky130_fd_pr__pfet_01v8_lvt_CWLY9J_0[2|7] vss iref vout_n vin_n vout iref vin_p sky130_fd_pr__pfet_01v8_lvt_CWLY9J
Xsky130_fd_pr__pfet_01v8_lvt_CWLY9J_0[3|7] vss iref vout_n vin_n vout iref vin_p sky130_fd_pr__pfet_01v8_lvt_CWLY9J
Xsky130_fd_pr__pfet_01v8_lvt_CWLY9J_0[4|7] vss iref vout_n vin_n vout iref vin_p sky130_fd_pr__pfet_01v8_lvt_CWLY9J
Xsky130_fd_pr__nfet_01v8_ZWZ6GW_0 vss vout_n vout_n vout_n vss vout vout_n vout_n
+ vss vout vout_n vss vss vout_n vout_n vout_n vss vout_n sky130_fd_pr__nfet_01v8_ZWZ6GW
.ends

.subckt sky130_fd_pr__cap_mim_m3_1_6BP6N2 VSUBS c1_2209_n5080# c1_n4869_n5080# m3_n1430_n5180#
+ c1_n1330_n5080# m3_2109_n5180# m3_n4969_n5180#
X0 c1_n4869_n5080# m3_n4969_n5180# sky130_fd_pr__cap_mim_m3_1 l=1.5e+07u w=1.5e+07u
X1 c1_2209_n5080# m3_2109_n5180# sky130_fd_pr__cap_mim_m3_1 l=1.5e+07u w=1.5e+07u
X2 c1_n4869_n5080# m3_n4969_n5180# sky130_fd_pr__cap_mim_m3_1 l=1.5e+07u w=1.5e+07u
X3 c1_n4869_n5080# m3_n4969_n5180# sky130_fd_pr__cap_mim_m3_1 l=1.5e+07u w=1.5e+07u
X4 c1_n1330_n5080# m3_n1430_n5180# sky130_fd_pr__cap_mim_m3_1 l=1.5e+07u w=1.5e+07u
X5 c1_n1330_n5080# m3_n1430_n5180# sky130_fd_pr__cap_mim_m3_1 l=1.5e+07u w=1.5e+07u
X6 c1_n1330_n5080# m3_n1430_n5180# sky130_fd_pr__cap_mim_m3_1 l=1.5e+07u w=1.5e+07u
X7 c1_2209_n5080# m3_2109_n5180# sky130_fd_pr__cap_mim_m3_1 l=1.5e+07u w=1.5e+07u
X8 c1_2209_n5080# m3_2109_n5180# sky130_fd_pr__cap_mim_m3_1 l=1.5e+07u w=1.5e+07u
.ends

.subckt sky130_fd_pr__nfet_01v8_RE4H9G a_399_n587# a_n1905_521# a_783_521# a_n945_1737#
+ a_1455_n1303# a_1311_717# a_783_n587# a_1455_1237# a_15_n1803# a_1647_n1303# a_n993_109#
+ a_303_1237# a_n897_n499# a_1695_717# a_111_n1303# a_831_717# a_n465_n87# a_1839_n1303#
+ a_255_1325# a_n177_629# a_1791_1325# a_303_n1303# a_n705_1325# a_1215_109# a_n33_717#
+ a_1743_629# a_1599_109# a_n993_n1715# a_351_717# a_735_109# a_n945_521# a_n897_n1715#
+ a_n1617_1237# a_n1857_717# a_495_21# a_n465_1129# a_n1569_1325# a_1887_n499# a_n1233_21#
+ a_975_n695# a_735_n499# a_n33_n499# a_255_109# a_n1949_n1107# a_399_1737# a_n1905_629#
+ a_n1377_717# a_783_629# a_1071_n87# a_783_1737# a_n1949_109# a_1791_n1715# a_n513_717#
+ a_1695_n1715# a_n1137_n695# a_159_1325# a_1695_1325# a_1599_n1715# a_n609_1325#
+ a_1887_n1715# a_n897_717# a_n1521_n695# a_207_521# a_543_1325# a_n1041_n1303# a_351_n1715#
+ a_495_n1195# a_1551_521# a_1455_1129# a_n1761_109# a_303_1129# a_n465_21# a_n1233_n1303#
+ a_255_n1715# a_543_n1715# a_n417_109# a_n657_1237# a_831_n1715# a_687_n1195# a_n1233_n87#
+ a_1119_717# a_n945_629# a_159_n1715# a_447_n1715# a_n1425_n1303# a_735_n1715# a_879_n1195#
+ a_639_n1715# a_n1281_109# a_639_717# a_n993_1325# a_n1617_n1303# a_927_n1715# a_n1281_n499#
+ a_1023_n499# a_639_n499# a_n1857_1325# a_n1809_n1303# a_n1713_521# a_1839_n87# a_591_521#
+ a_63_109# a_1647_21# a_n1617_1129# a_1503_109# a_159_717# a_975_n587# a_n177_n695#
+ a_1887_109# a_1647_1237# a_n273_n87# a_n561_n695# a_1599_1325# a_n321_n499# a_1023_109#
+ a_15_n695# a_207_629# a_447_1325# a_15_521# a_n273_n1195# a_1551_629# a_879_n87#
+ a_831_1325# a_543_109# a_n321_n1715# a_n465_n1195# a_n1137_n587# a_n753_521# a_495_1237#
+ a_n1281_n1715# a_n1665_717# a_n225_n1715# a_n513_n1715# a_n657_n1195# a_n1521_n587#
+ a_n801_n1715# a_n1473_n1715# a_n1185_n1715# a_n1761_n1715# a_n1809_1237# a_n897_1325#
+ a_n417_n1715# a_n129_n1715# a_1167_n695# a_n1185_n499# a_n705_n1715# a_n849_n1195#
+ a_n1089_n1715# a_n1377_n1715# a_n801_717# a_n657_1129# a_n1665_n1715# a_1551_n695#
+ a_879_21# a_n609_n1715# w_n2087_n1925# a_n1713_629# a_1359_521# a_1311_n499# a_n1569_n1715#
+ a_n1617_21# a_n1185_717# a_591_629# a_n1857_n1715# a_1071_n1195# a_927_n499# a_n1569_109#
+ a_n81_n87# a_n81_n1195# a_1071_21# a_1263_n1195# a_n1041_1237# a_975_1737# a_n321_717#
+ a_n705_109# a_1407_717# a_1023_n1715# a_1311_n1715# a_1455_n1195# a_n1089_109# a_n33_n1715#
+ a_n225_n499# a_1215_n1715# a_n1329_n695# a_1503_n1715# a_1647_n1195# a_927_717#
+ a_1887_1325# a_111_n1195# a_n1713_n695# a_n177_n587# a_15_629# a_1119_n1715# a_399_521#
+ a_1407_n1715# a_1839_n1195# a_n33_1325# a_735_1325# a_n225_109# a_1647_1129# a_n1041_n87#
+ a_n561_n587# a_303_n1195# a_n1137_1737# a_n753_629# a_n849_1237# a_n1949_n499# a_n849_21#
+ a_n1521_1737# a_n81_1237# a_15_n587# a_447_717# a_n1089_n499# a_1791_717# a_63_n1715#
+ a_n1473_n499# a_n1521_521# a_63_n499# a_1647_n87# a_495_1129# a_1215_n499# a_1311_109#
+ a_1359_629# a_n1809_1129# a_1167_n587# a_n1041_21# a_1695_109# a_1551_n587# a_591_n1803#
+ a_831_109# a_n369_n695# a_1839_1237# a_n129_n499# a_303_n87# a_783_n1803# a_n753_n695#
+ a_n33_109# a_n609_717# a_n1281_1325# a_n513_n499# a_n1809_n87# a_399_n1803# a_975_n1803#
+ a_687_n87# a_1023_1325# a_303_21# a_n177_1737# a_n1041_1129# a_639_1325# a_n993_n1107#
+ a_351_109# a_399_629# a_n561_521# a_n561_1737# a_n897_n1107# a_n1473_717# a_n1041_n1195#
+ a_n1857_109# a_n1329_n587# a_1071_1237# a_n129_717# a_687_1237# a_15_1737# a_n1233_n1195#
+ a_n1713_n587# a_n273_21# a_n81_21# a_1359_n695# a_n1377_n499# a_n1425_n1195# a_n1521_629#
+ a_1167_521# a_n321_1325# a_1119_n499# a_n849_1129# a_207_n695# a_n1377_109# a_n993_717#
+ a_1743_n695# a_n1761_n499# a_n1617_n1195# a_n81_1129# a_1503_n499# a_1791_n1107#
+ a_n849_n87# a_1167_1737# a_n1809_n1195# a_n513_109# a_1695_n1107# a_1215_717# a_1551_1737#
+ a_n1233_1237# a_1455_21# a_1599_n1107# a_1887_n1107# a_n897_109# a_1599_717# a_n561_n1803#
+ a_351_n1107# a_n1185_1325# a_735_717# a_591_n695# a_n417_n499# a_n1329_521# a_n177_n1803#
+ a_n753_n1803# a_351_n499# a_255_n1107# a_543_n1107# a_831_n1107# a_n801_n499# a_1119_109#
+ a_n369_n587# a_n369_n1803# a_n1905_n695# a_1311_1325# a_n561_629# a_n945_n1803#
+ a_159_n1107# a_1839_1129# a_927_1325# a_447_n1107# a_735_n1107# a_n753_n587# a_n1329_1737#
+ a_255_717# a_639_109# a_639_n1107# a_927_n1107# a_n1949_n1715# a_n1713_1737# a_1455_n87#
+ a_n1949_717# a_n225_1325# a_1167_629# a_n1665_n499# a_1071_1129# a_1551_n1803# a_687_1129#
+ a_1407_n499# a_159_109# a_n369_521# a_1167_n1803# a_n273_1237# a_1743_n1803# a_1359_n587#
+ a_687_21# a_n1949_1325# a_1359_n1803# a_207_n587# a_n1761_717# a_111_n87# a_n1425_21#
+ a_1743_n587# a_n417_717# a_n1617_n87# a_n1089_1325# a_495_n87# a_n945_n695# a_n1329_629#
+ a_255_n499# a_n1473_1325# a_1791_n499# a_n705_n499# a_n321_n1107# a_63_1325# a_n369_1737#
+ a_1215_1325# a_n1233_1129# a_207_n1803# a_n1281_n1107# a_n1281_717# a_n1665_109#
+ a_n225_n1107# a_n513_n1107# a_n801_n1107# a_n753_1737# a_n1185_n1107# a_n1473_n1107#
+ a_n1761_n1107# a_591_n587# a_n129_n1107# a_n417_n1107# a_n705_n1107# a_1263_1237#
+ a_975_521# a_63_717# a_n1089_n1107# a_879_1237# a_n1377_n1107# a_n801_109# a_n1665_n1107#
+ a_1503_717# a_111_1237# a_n1905_n587# a_n609_n1107# a_n129_1325# a_n1569_n1107#
+ a_n1185_109# a_n1857_n1107# a_495_n1303# a_n1569_n499# a_1887_717# a_n657_21# a_n513_1325#
+ a_n657_n87# a_687_n1303# a_n369_629# a_n321_109# a_1023_717# a_1407_109# a_1023_n1107#
+ a_1359_1737# a_1311_n1107# a_879_n1303# a_n33_n1107# a_207_1737# a_1215_n1107# a_1743_1737#
+ a_1503_n1107# a_n1425_1237# a_543_717# a_927_109# a_n1137_521# a_399_n695# a_1119_n1107#
+ a_1839_21# a_n273_1129# a_1407_n1107# a_159_n499# a_n1377_1325# a_783_n695# a_1695_n499#
+ a_n609_n499# a_1119_1325# a_543_n499# a_n1761_1325# a_1503_1325# a_n1521_n1803#
+ a_447_109# a_n945_n587# a_591_1737# a_1791_109# a_n1137_n1803# a_63_n1107# a_111_21#
+ a_n1569_717# a_n1713_n1803# a_975_629# a_1263_n87# a_n1905_1737# a_n1329_n1803#
+ a_n1905_n1803# a_n993_n499# a_n273_n1303# a_n705_717# a_n417_1325# a_n177_521# a_n1857_n499#
+ a_1263_1129# a_351_1325# a_n465_n1303# a_n1089_717# a_879_1129# a_n801_1325# a_111_1129#
+ a_1743_521# a_n465_1237# a_n657_n1303# a_n225_717# a_n609_109# a_n849_n1303# a_n1425_n87#
+ a_n1137_629# a_n1809_21# a_1599_n499# a_1071_n1303# a_1263_21# a_447_n499# a_n1473_109#
+ a_n1665_1325# a_n81_n1303# a_1407_1325# a_n1425_1129# a_1263_n1303# a_n129_109#
+ a_831_n499#
X0 a_1695_717# a_1647_1129# a_1599_717# w_n2087_n1925# sky130_fd_pr__nfet_01v8 ad=6.435e+11p pd=4.56e+06u as=6.435e+11p ps=4.56e+06u w=1.95e+06u l=150000u
X1 a_63_1325# a_15_1737# a_n33_1325# w_n2087_n1925# sky130_fd_pr__nfet_01v8 ad=6.435e+11p pd=4.56e+06u as=6.435e+11p ps=4.56e+06u w=1.95e+06u l=150000u
X2 a_n33_717# a_n81_1129# a_n129_717# w_n2087_n1925# sky130_fd_pr__nfet_01v8 ad=6.435e+11p pd=4.56e+06u as=6.435e+11p ps=4.56e+06u w=1.95e+06u l=150000u
X3 a_1695_109# a_1647_21# a_1599_109# w_n2087_n1925# sky130_fd_pr__nfet_01v8 ad=6.435e+11p pd=4.56e+06u as=6.435e+11p ps=4.56e+06u w=1.95e+06u l=150000u
X4 a_1695_n1715# a_1647_n1303# a_1599_n1715# w_n2087_n1925# sky130_fd_pr__nfet_01v8 ad=6.435e+11p pd=4.56e+06u as=6.435e+11p ps=4.56e+06u w=1.95e+06u l=150000u
X5 a_1503_n499# a_1455_n87# a_1407_n499# w_n2087_n1925# sky130_fd_pr__nfet_01v8 ad=6.435e+11p pd=4.56e+06u as=6.435e+11p ps=4.56e+06u w=1.95e+06u l=150000u
X6 a_n993_1325# a_n1041_1237# a_n1089_1325# w_n2087_n1925# sky130_fd_pr__nfet_01v8 ad=6.435e+11p pd=4.56e+06u as=6.435e+11p ps=4.56e+06u w=1.95e+06u l=150000u
X7 a_n33_109# a_n81_21# a_n129_109# w_n2087_n1925# sky130_fd_pr__nfet_01v8 ad=6.435e+11p pd=4.56e+06u as=6.435e+11p ps=4.56e+06u w=1.95e+06u l=150000u
X8 a_159_n499# a_111_n87# a_63_n499# w_n2087_n1925# sky130_fd_pr__nfet_01v8 ad=6.435e+11p pd=4.56e+06u as=6.435e+11p ps=4.56e+06u w=1.95e+06u l=150000u
X9 a_735_n1715# a_687_n1303# a_639_n1715# w_n2087_n1925# sky130_fd_pr__nfet_01v8 ad=6.435e+11p pd=4.56e+06u as=6.435e+11p ps=4.56e+06u w=1.95e+06u l=150000u
X10 a_1695_n1107# a_1647_n1195# a_1599_n1107# w_n2087_n1925# sky130_fd_pr__nfet_01v8 ad=6.435e+11p pd=4.56e+06u as=6.435e+11p ps=4.56e+06u w=1.95e+06u l=150000u
X11 a_735_n1107# a_687_n1195# a_639_n1107# w_n2087_n1925# sky130_fd_pr__nfet_01v8 ad=6.435e+11p pd=4.56e+06u as=6.435e+11p ps=4.56e+06u w=1.95e+06u l=150000u
X12 a_1599_717# a_1551_629# a_1503_717# w_n2087_n1925# sky130_fd_pr__nfet_01v8 ad=0p pd=0u as=6.435e+11p ps=4.56e+06u w=1.95e+06u l=150000u
X13 a_1599_109# a_1551_521# a_1503_109# w_n2087_n1925# sky130_fd_pr__nfet_01v8 ad=0p pd=0u as=6.435e+11p ps=4.56e+06u w=1.95e+06u l=150000u
X14 a_n1665_1325# a_n1713_1737# a_n1761_1325# w_n2087_n1925# sky130_fd_pr__nfet_01v8 ad=6.435e+11p pd=4.56e+06u as=6.435e+11p ps=4.56e+06u w=1.95e+06u l=150000u
X15 a_1791_n499# a_1743_n587# a_1695_n499# w_n2087_n1925# sky130_fd_pr__nfet_01v8 ad=6.435e+11p pd=4.56e+06u as=6.435e+11p ps=4.56e+06u w=1.95e+06u l=150000u
X16 a_n1281_1325# a_n1329_1737# a_n1377_1325# w_n2087_n1925# sky130_fd_pr__nfet_01v8 ad=6.435e+11p pd=4.56e+06u as=6.435e+11p ps=4.56e+06u w=1.95e+06u l=150000u
X17 a_447_n499# a_399_n587# a_351_n499# w_n2087_n1925# sky130_fd_pr__nfet_01v8 ad=6.435e+11p pd=4.56e+06u as=6.435e+11p ps=4.56e+06u w=1.95e+06u l=150000u
X18 a_n609_n499# a_n657_n87# a_n705_n499# w_n2087_n1925# sky130_fd_pr__nfet_01v8 ad=6.435e+11p pd=4.56e+06u as=6.435e+11p ps=4.56e+06u w=1.95e+06u l=150000u
X19 a_n1377_n1715# a_n1425_n1303# a_n1473_n1715# w_n2087_n1925# sky130_fd_pr__nfet_01v8 ad=6.435e+11p pd=4.56e+06u as=6.435e+11p ps=4.56e+06u w=1.95e+06u l=150000u
X20 a_n1377_n1107# a_n1425_n1195# a_n1473_n1107# w_n2087_n1925# sky130_fd_pr__nfet_01v8 ad=6.435e+11p pd=4.56e+06u as=6.435e+11p ps=4.56e+06u w=1.95e+06u l=150000u
X21 a_n1281_717# a_n1329_629# a_n1377_717# w_n2087_n1925# sky130_fd_pr__nfet_01v8 ad=6.435e+11p pd=4.56e+06u as=6.435e+11p ps=4.56e+06u w=1.95e+06u l=150000u
X22 a_n1281_109# a_n1329_521# a_n1377_109# w_n2087_n1925# sky130_fd_pr__nfet_01v8 ad=6.435e+11p pd=4.56e+06u as=6.435e+11p ps=4.56e+06u w=1.95e+06u l=150000u
X23 a_n33_n1715# a_n81_n1303# a_n129_n1715# w_n2087_n1925# sky130_fd_pr__nfet_01v8 ad=6.435e+11p pd=4.56e+06u as=6.435e+11p ps=4.56e+06u w=1.95e+06u l=150000u
X24 a_735_n499# a_687_n87# a_639_n499# w_n2087_n1925# sky130_fd_pr__nfet_01v8 ad=6.435e+11p pd=4.56e+06u as=6.435e+11p ps=4.56e+06u w=1.95e+06u l=150000u
X25 a_n33_n1107# a_n81_n1195# a_n129_n1107# w_n2087_n1925# sky130_fd_pr__nfet_01v8 ad=6.435e+11p pd=4.56e+06u as=6.435e+11p ps=4.56e+06u w=1.95e+06u l=150000u
X26 a_1311_n499# a_1263_n87# a_1215_n499# w_n2087_n1925# sky130_fd_pr__nfet_01v8 ad=6.435e+11p pd=4.56e+06u as=6.435e+11p ps=4.56e+06u w=1.95e+06u l=150000u
X27 a_n33_1325# a_n81_1237# a_n129_1325# w_n2087_n1925# sky130_fd_pr__nfet_01v8 ad=0p pd=0u as=6.435e+11p ps=4.56e+06u w=1.95e+06u l=150000u
X28 a_543_717# a_495_1129# a_447_717# w_n2087_n1925# sky130_fd_pr__nfet_01v8 ad=6.435e+11p pd=4.56e+06u as=6.435e+11p ps=4.56e+06u w=1.95e+06u l=150000u
X29 a_n897_n499# a_n945_n587# a_n993_n499# w_n2087_n1925# sky130_fd_pr__nfet_01v8 ad=6.435e+11p pd=4.56e+06u as=6.435e+11p ps=4.56e+06u w=1.95e+06u l=150000u
X30 a_n321_717# a_n369_629# a_n417_717# w_n2087_n1925# sky130_fd_pr__nfet_01v8 ad=6.435e+11p pd=4.56e+06u as=6.435e+11p ps=4.56e+06u w=1.95e+06u l=150000u
X31 a_543_109# a_495_21# a_447_109# w_n2087_n1925# sky130_fd_pr__nfet_01v8 ad=6.435e+11p pd=4.56e+06u as=6.435e+11p ps=4.56e+06u w=1.95e+06u l=150000u
X32 a_n129_n499# a_n177_n587# a_n225_n499# w_n2087_n1925# sky130_fd_pr__nfet_01v8 ad=6.435e+11p pd=4.56e+06u as=6.435e+11p ps=4.56e+06u w=1.95e+06u l=150000u
X33 a_n705_n1715# a_n753_n1803# a_n801_n1715# w_n2087_n1925# sky130_fd_pr__nfet_01v8 ad=6.435e+11p pd=4.56e+06u as=6.435e+11p ps=4.56e+06u w=1.95e+06u l=150000u
X34 a_n1185_717# a_n1233_1129# a_n1281_717# w_n2087_n1925# sky130_fd_pr__nfet_01v8 ad=6.435e+11p pd=4.56e+06u as=0p ps=0u w=1.95e+06u l=150000u
X35 a_n321_109# a_n369_521# a_n417_109# w_n2087_n1925# sky130_fd_pr__nfet_01v8 ad=6.435e+11p pd=4.56e+06u as=6.435e+11p ps=4.56e+06u w=1.95e+06u l=150000u
X36 a_1407_n1715# a_1359_n1803# a_1311_n1715# w_n2087_n1925# sky130_fd_pr__nfet_01v8 ad=6.435e+11p pd=4.56e+06u as=6.435e+11p ps=4.56e+06u w=1.95e+06u l=150000u
X37 a_n705_n1107# a_n753_n695# a_n801_n1107# w_n2087_n1925# sky130_fd_pr__nfet_01v8 ad=6.435e+11p pd=4.56e+06u as=6.435e+11p ps=4.56e+06u w=1.95e+06u l=150000u
X38 a_n1185_109# a_n1233_21# a_n1281_109# w_n2087_n1925# sky130_fd_pr__nfet_01v8 ad=6.435e+11p pd=4.56e+06u as=0p ps=0u w=1.95e+06u l=150000u
X39 a_447_n1715# a_399_n1803# a_351_n1715# w_n2087_n1925# sky130_fd_pr__nfet_01v8 ad=6.435e+11p pd=4.56e+06u as=6.435e+11p ps=4.56e+06u w=1.95e+06u l=150000u
X40 a_1407_n1107# a_1359_n695# a_1311_n1107# w_n2087_n1925# sky130_fd_pr__nfet_01v8 ad=6.435e+11p pd=4.56e+06u as=6.435e+11p ps=4.56e+06u w=1.95e+06u l=150000u
X41 a_447_n1107# a_399_n695# a_351_n1107# w_n2087_n1925# sky130_fd_pr__nfet_01v8 ad=6.435e+11p pd=4.56e+06u as=6.435e+11p ps=4.56e+06u w=1.95e+06u l=150000u
X42 a_447_717# a_399_629# a_351_717# w_n2087_n1925# sky130_fd_pr__nfet_01v8 ad=0p pd=0u as=6.435e+11p ps=4.56e+06u w=1.95e+06u l=150000u
X43 a_1599_1325# a_1551_1737# a_1503_1325# w_n2087_n1925# sky130_fd_pr__nfet_01v8 ad=6.435e+11p pd=4.56e+06u as=6.435e+11p ps=4.56e+06u w=1.95e+06u l=150000u
X44 a_n225_717# a_n273_1129# a_n321_717# w_n2087_n1925# sky130_fd_pr__nfet_01v8 ad=6.435e+11p pd=4.56e+06u as=0p ps=0u w=1.95e+06u l=150000u
X45 a_447_109# a_399_521# a_351_109# w_n2087_n1925# sky130_fd_pr__nfet_01v8 ad=0p pd=0u as=6.435e+11p ps=4.56e+06u w=1.95e+06u l=150000u
X46 a_n1089_717# a_n1137_629# a_n1185_717# w_n2087_n1925# sky130_fd_pr__nfet_01v8 ad=6.435e+11p pd=4.56e+06u as=0p ps=0u w=1.95e+06u l=150000u
X47 a_n225_109# a_n273_21# a_n321_109# w_n2087_n1925# sky130_fd_pr__nfet_01v8 ad=6.435e+11p pd=4.56e+06u as=0p ps=0u w=1.95e+06u l=150000u
X48 a_255_n499# a_207_n587# a_159_n499# w_n2087_n1925# sky130_fd_pr__nfet_01v8 ad=6.435e+11p pd=4.56e+06u as=0p ps=0u w=1.95e+06u l=150000u
X49 a_n1089_109# a_n1137_521# a_n1185_109# w_n2087_n1925# sky130_fd_pr__nfet_01v8 ad=6.435e+11p pd=4.56e+06u as=0p ps=0u w=1.95e+06u l=150000u
X50 a_n417_n499# a_n465_n87# a_n513_n499# w_n2087_n1925# sky130_fd_pr__nfet_01v8 ad=6.435e+11p pd=4.56e+06u as=6.435e+11p ps=4.56e+06u w=1.95e+06u l=150000u
X51 a_1791_n1715# a_1743_n1803# a_1695_n1715# w_n2087_n1925# sky130_fd_pr__nfet_01v8 ad=6.435e+11p pd=4.56e+06u as=0p ps=0u w=1.95e+06u l=150000u
X52 a_831_n1715# a_783_n1803# a_735_n1715# w_n2087_n1925# sky130_fd_pr__nfet_01v8 ad=6.435e+11p pd=4.56e+06u as=0p ps=0u w=1.95e+06u l=150000u
X53 a_n129_717# a_n177_629# a_n225_717# w_n2087_n1925# sky130_fd_pr__nfet_01v8 ad=0p pd=0u as=0p ps=0u w=1.95e+06u l=150000u
X54 a_1791_n1107# a_1743_n695# a_1695_n1107# w_n2087_n1925# sky130_fd_pr__nfet_01v8 ad=6.435e+11p pd=4.56e+06u as=0p ps=0u w=1.95e+06u l=150000u
X55 a_831_n1107# a_783_n695# a_735_n1107# w_n2087_n1925# sky130_fd_pr__nfet_01v8 ad=6.435e+11p pd=4.56e+06u as=0p ps=0u w=1.95e+06u l=150000u
X56 a_n1761_1325# a_n1809_1237# a_n1857_1325# w_n2087_n1925# sky130_fd_pr__nfet_01v8 ad=0p pd=0u as=6.435e+11p ps=4.56e+06u w=1.95e+06u l=150000u
X57 a_n129_109# a_n177_521# a_n225_109# w_n2087_n1925# sky130_fd_pr__nfet_01v8 ad=0p pd=0u as=0p ps=0u w=1.95e+06u l=150000u
X58 a_n1089_n499# a_n1137_n587# a_n1185_n499# w_n2087_n1925# sky130_fd_pr__nfet_01v8 ad=6.435e+11p pd=4.56e+06u as=6.435e+11p ps=4.56e+06u w=1.95e+06u l=150000u
X59 a_927_n499# a_879_n87# a_831_n499# w_n2087_n1925# sky130_fd_pr__nfet_01v8 ad=6.435e+11p pd=4.56e+06u as=6.435e+11p ps=4.56e+06u w=1.95e+06u l=150000u
X60 a_1887_1325# a_1839_1237# a_1791_1325# w_n2087_n1925# sky130_fd_pr__nfet_01v8 ad=6.045e+11p pd=4.52e+06u as=6.435e+11p ps=4.56e+06u w=1.95e+06u l=150000u
X61 a_n1089_n1715# a_n1137_n1803# a_n1185_n1715# w_n2087_n1925# sky130_fd_pr__nfet_01v8 ad=6.435e+11p pd=4.56e+06u as=6.435e+11p ps=4.56e+06u w=1.95e+06u l=150000u
X62 a_n1089_n1107# a_n1137_n695# a_n1185_n1107# w_n2087_n1925# sky130_fd_pr__nfet_01v8 ad=6.435e+11p pd=4.56e+06u as=6.435e+11p ps=4.56e+06u w=1.95e+06u l=150000u
X63 a_543_n499# a_495_n87# a_447_n499# w_n2087_n1925# sky130_fd_pr__nfet_01v8 ad=6.435e+11p pd=4.56e+06u as=0p ps=0u w=1.95e+06u l=150000u
X64 a_1119_1325# a_1071_1237# a_1023_1325# w_n2087_n1925# sky130_fd_pr__nfet_01v8 ad=6.435e+11p pd=4.56e+06u as=6.435e+11p ps=4.56e+06u w=1.95e+06u l=150000u
X65 a_1311_717# a_1263_1129# a_1215_717# w_n2087_n1925# sky130_fd_pr__nfet_01v8 ad=6.435e+11p pd=4.56e+06u as=6.435e+11p ps=4.56e+06u w=1.95e+06u l=150000u
X66 a_n705_n499# a_n753_n587# a_n801_n499# w_n2087_n1925# sky130_fd_pr__nfet_01v8 ad=0p pd=0u as=6.435e+11p ps=4.56e+06u w=1.95e+06u l=150000u
X67 a_n1857_n1715# a_n1905_n1803# a_n1949_n1715# w_n2087_n1925# sky130_fd_pr__nfet_01v8 ad=6.435e+11p pd=4.56e+06u as=6.045e+11p ps=4.52e+06u w=1.95e+06u l=150000u
X68 a_n897_717# a_n945_629# a_n993_717# w_n2087_n1925# sky130_fd_pr__nfet_01v8 ad=6.435e+11p pd=4.56e+06u as=6.435e+11p ps=4.56e+06u w=1.95e+06u l=150000u
X69 a_1311_109# a_1263_21# a_1215_109# w_n2087_n1925# sky130_fd_pr__nfet_01v8 ad=6.435e+11p pd=4.56e+06u as=6.435e+11p ps=4.56e+06u w=1.95e+06u l=150000u
X70 a_n1857_n1107# a_n1905_n695# a_n1949_n1107# w_n2087_n1925# sky130_fd_pr__nfet_01v8 ad=6.435e+11p pd=4.56e+06u as=6.045e+11p ps=4.52e+06u w=1.95e+06u l=150000u
X71 a_n897_109# a_n945_521# a_n993_109# w_n2087_n1925# sky130_fd_pr__nfet_01v8 ad=6.435e+11p pd=4.56e+06u as=6.435e+11p ps=4.56e+06u w=1.95e+06u l=150000u
X72 a_1215_717# a_1167_629# a_1119_717# w_n2087_n1925# sky130_fd_pr__nfet_01v8 ad=0p pd=0u as=6.435e+11p ps=4.56e+06u w=1.95e+06u l=150000u
X73 a_n1377_n499# a_n1425_n87# a_n1473_n499# w_n2087_n1925# sky130_fd_pr__nfet_01v8 ad=6.435e+11p pd=4.56e+06u as=6.435e+11p ps=4.56e+06u w=1.95e+06u l=150000u
X74 a_1215_109# a_1167_521# a_1119_109# w_n2087_n1925# sky130_fd_pr__nfet_01v8 ad=0p pd=0u as=6.435e+11p ps=4.56e+06u w=1.95e+06u l=150000u
X75 a_n417_n1715# a_n465_n1303# a_n513_n1715# w_n2087_n1925# sky130_fd_pr__nfet_01v8 ad=6.435e+11p pd=4.56e+06u as=6.435e+11p ps=4.56e+06u w=1.95e+06u l=150000u
X76 a_1119_n1715# a_1071_n1303# a_1023_n1715# w_n2087_n1925# sky130_fd_pr__nfet_01v8 ad=6.435e+11p pd=4.56e+06u as=6.435e+11p ps=4.56e+06u w=1.95e+06u l=150000u
X77 a_159_n1715# a_111_n1303# a_63_n1715# w_n2087_n1925# sky130_fd_pr__nfet_01v8 ad=6.435e+11p pd=4.56e+06u as=6.435e+11p ps=4.56e+06u w=1.95e+06u l=150000u
X78 a_n1473_n1715# a_n1521_n1803# a_n1569_n1715# w_n2087_n1925# sky130_fd_pr__nfet_01v8 ad=0p pd=0u as=6.435e+11p ps=4.56e+06u w=1.95e+06u l=150000u
X79 a_n417_n1107# a_n465_n1195# a_n513_n1107# w_n2087_n1925# sky130_fd_pr__nfet_01v8 ad=6.435e+11p pd=4.56e+06u as=6.435e+11p ps=4.56e+06u w=1.95e+06u l=150000u
X80 a_831_n499# a_783_n587# a_735_n499# w_n2087_n1925# sky130_fd_pr__nfet_01v8 ad=0p pd=0u as=0p ps=0u w=1.95e+06u l=150000u
X81 a_1407_1325# a_1359_1737# a_1311_1325# w_n2087_n1925# sky130_fd_pr__nfet_01v8 ad=6.435e+11p pd=4.56e+06u as=6.435e+11p ps=4.56e+06u w=1.95e+06u l=150000u
X82 a_1119_n1107# a_1071_n1195# a_1023_n1107# w_n2087_n1925# sky130_fd_pr__nfet_01v8 ad=6.435e+11p pd=4.56e+06u as=6.435e+11p ps=4.56e+06u w=1.95e+06u l=150000u
X83 a_159_n1107# a_111_n1195# a_63_n1107# w_n2087_n1925# sky130_fd_pr__nfet_01v8 ad=6.435e+11p pd=4.56e+06u as=6.435e+11p ps=4.56e+06u w=1.95e+06u l=150000u
X84 a_n1473_n1107# a_n1521_n695# a_n1569_n1107# w_n2087_n1925# sky130_fd_pr__nfet_01v8 ad=0p pd=0u as=6.435e+11p ps=4.56e+06u w=1.95e+06u l=150000u
X85 a_927_n1715# a_879_n1303# a_831_n1715# w_n2087_n1925# sky130_fd_pr__nfet_01v8 ad=6.435e+11p pd=4.56e+06u as=0p ps=0u w=1.95e+06u l=150000u
X86 a_1119_717# a_1071_1129# a_1023_717# w_n2087_n1925# sky130_fd_pr__nfet_01v8 ad=0p pd=0u as=6.435e+11p ps=4.56e+06u w=1.95e+06u l=150000u
X87 a_n225_n499# a_n273_n87# a_n321_n499# w_n2087_n1925# sky130_fd_pr__nfet_01v8 ad=0p pd=0u as=6.435e+11p ps=4.56e+06u w=1.95e+06u l=150000u
X88 a_927_n1107# a_879_n1195# a_831_n1107# w_n2087_n1925# sky130_fd_pr__nfet_01v8 ad=6.435e+11p pd=4.56e+06u as=0p ps=0u w=1.95e+06u l=150000u
X89 a_1119_109# a_1071_21# a_1023_109# w_n2087_n1925# sky130_fd_pr__nfet_01v8 ad=0p pd=0u as=6.435e+11p ps=4.56e+06u w=1.95e+06u l=150000u
X90 a_n1761_717# a_n1809_1129# a_n1857_717# w_n2087_n1925# sky130_fd_pr__nfet_01v8 ad=6.435e+11p pd=4.56e+06u as=6.435e+11p ps=4.56e+06u w=1.95e+06u l=150000u
X91 a_63_717# a_15_629# a_n33_717# w_n2087_n1925# sky130_fd_pr__nfet_01v8 ad=6.435e+11p pd=4.56e+06u as=0p ps=0u w=1.95e+06u l=150000u
X92 a_n1761_109# a_n1809_21# a_n1857_109# w_n2087_n1925# sky130_fd_pr__nfet_01v8 ad=6.435e+11p pd=4.56e+06u as=6.435e+11p ps=4.56e+06u w=1.95e+06u l=150000u
X93 a_63_109# a_15_521# a_n33_109# w_n2087_n1925# sky130_fd_pr__nfet_01v8 ad=6.435e+11p pd=4.56e+06u as=0p ps=0u w=1.95e+06u l=150000u
X94 a_1503_n1715# a_1455_n1303# a_1407_n1715# w_n2087_n1925# sky130_fd_pr__nfet_01v8 ad=6.435e+11p pd=4.56e+06u as=0p ps=0u w=1.95e+06u l=150000u
X95 a_n801_n1715# a_n849_n1303# a_n897_n1715# w_n2087_n1925# sky130_fd_pr__nfet_01v8 ad=0p pd=0u as=6.435e+11p ps=4.56e+06u w=1.95e+06u l=150000u
X96 a_n801_n1107# a_n849_n1195# a_n897_n1107# w_n2087_n1925# sky130_fd_pr__nfet_01v8 ad=0p pd=0u as=6.435e+11p ps=4.56e+06u w=1.95e+06u l=150000u
X97 a_1695_1325# a_1647_1237# a_1599_1325# w_n2087_n1925# sky130_fd_pr__nfet_01v8 ad=6.435e+11p pd=4.56e+06u as=0p ps=0u w=1.95e+06u l=150000u
X98 a_1023_717# a_975_629# a_927_717# w_n2087_n1925# sky130_fd_pr__nfet_01v8 ad=0p pd=0u as=6.435e+11p ps=4.56e+06u w=1.95e+06u l=150000u
X99 a_1887_717# a_1839_1129# a_1791_717# w_n2087_n1925# sky130_fd_pr__nfet_01v8 ad=6.045e+11p pd=4.52e+06u as=6.435e+11p ps=4.56e+06u w=1.95e+06u l=150000u
X100 a_543_n1715# a_495_n1303# a_447_n1715# w_n2087_n1925# sky130_fd_pr__nfet_01v8 ad=6.435e+11p pd=4.56e+06u as=0p ps=0u w=1.95e+06u l=150000u
X101 a_1503_n1107# a_1455_n1195# a_1407_n1107# w_n2087_n1925# sky130_fd_pr__nfet_01v8 ad=6.435e+11p pd=4.56e+06u as=0p ps=0u w=1.95e+06u l=150000u
X102 a_1023_109# a_975_521# a_927_109# w_n2087_n1925# sky130_fd_pr__nfet_01v8 ad=0p pd=0u as=6.435e+11p ps=4.56e+06u w=1.95e+06u l=150000u
X103 a_1887_109# a_1839_21# a_1791_109# w_n2087_n1925# sky130_fd_pr__nfet_01v8 ad=6.045e+11p pd=4.52e+06u as=6.435e+11p ps=4.56e+06u w=1.95e+06u l=150000u
X104 a_351_n499# a_303_n87# a_255_n499# w_n2087_n1925# sky130_fd_pr__nfet_01v8 ad=0p pd=0u as=0p ps=0u w=1.95e+06u l=150000u