* NGSPICE file created from /home/eamta/caravel_eamta_2021/mag/user_analog_project_wrapper.ext - technology: sky130A

.subckt sky130_fd_pr__pfet_01v8_DDZS4V VSUBS a_1316_n761# a_1456_n664# a_n524_n664#
+ w_n1652_n884# a_70_n664# a_128_n761# a_n920_n664# a_n1060_n761# a_268_n664# a_n1258_n761#
+ a_524_n761# a_664_n664# a_n466_n761# a_n1118_n664# a_920_n761# a_1118_n761# a_1060_n664#
+ a_1258_n664# a_n862_n761# a_n1514_n664# a_n326_n664# a_n722_n664# a_n70_n761# a_326_n761#
+ a_466_n664# a_n1456_n761# a_n268_n761# a_722_n761# a_862_n664# a_n664_n761# a_n1316_n664#
+ a_n128_n664#
X0 a_n722_n664# a_n862_n761# a_n920_n664# w_n1652_n884# sky130_fd_pr__pfet_01v8 ad=2.03e+12p pd=1.458e+07u as=2.03e+12p ps=1.458e+07u w=7e+06u l=700000u
X1 a_466_n664# a_326_n761# a_268_n664# w_n1652_n884# sky130_fd_pr__pfet_01v8 ad=2.03e+12p pd=1.458e+07u as=2.03e+12p ps=1.458e+07u w=7e+06u l=700000u
X2 a_n920_n664# a_n1060_n761# a_n1118_n664# w_n1652_n884# sky130_fd_pr__pfet_01v8 ad=0p pd=0u as=2.03e+12p ps=1.458e+07u w=7e+06u l=700000u
X3 a_1456_n664# a_1316_n761# a_1258_n664# w_n1652_n884# sky130_fd_pr__pfet_01v8 ad=2.03e+12p pd=1.458e+07u as=2.03e+12p ps=1.458e+07u w=7e+06u l=700000u
X4 a_1060_n664# a_920_n761# a_862_n664# w_n1652_n884# sky130_fd_pr__pfet_01v8 ad=2.03e+12p pd=1.458e+07u as=2.03e+12p ps=1.458e+07u w=7e+06u l=700000u
X5 a_n326_n664# a_n466_n761# a_n524_n664# w_n1652_n884# sky130_fd_pr__pfet_01v8 ad=2.03e+12p pd=1.458e+07u as=2.03e+12p ps=1.458e+07u w=7e+06u l=700000u
X6 a_664_n664# a_524_n761# a_466_n664# w_n1652_n884# sky130_fd_pr__pfet_01v8 ad=2.03e+12p pd=1.458e+07u as=0p ps=0u w=7e+06u l=700000u
X7 a_n1118_n664# a_n1258_n761# a_n1316_n664# w_n1652_n884# sky130_fd_pr__pfet_01v8 ad=0p pd=0u as=2.03e+12p ps=1.458e+07u w=7e+06u l=700000u
X8 a_n524_n664# a_n664_n761# a_n722_n664# w_n1652_n884# sky130_fd_pr__pfet_01v8 ad=0p pd=0u as=0p ps=0u w=7e+06u l=700000u
X9 a_268_n664# a_128_n761# a_70_n664# w_n1652_n884# sky130_fd_pr__pfet_01v8 ad=0p pd=0u as=2.03e+12p ps=1.458e+07u w=7e+06u l=700000u
X10 a_70_n664# a_n70_n761# a_n128_n664# w_n1652_n884# sky130_fd_pr__pfet_01v8 ad=0p pd=0u as=2.03e+12p ps=1.458e+07u w=7e+06u l=700000u
X11 a_1258_n664# a_1118_n761# a_1060_n664# w_n1652_n884# sky130_fd_pr__pfet_01v8 ad=0p pd=0u as=0p ps=0u w=7e+06u l=700000u
X12 a_862_n664# a_722_n761# a_664_n664# w_n1652_n884# sky130_fd_pr__pfet_01v8 ad=0p pd=0u as=0p ps=0u w=7e+06u l=700000u
X13 a_n128_n664# a_n268_n761# a_n326_n664# w_n1652_n884# sky130_fd_pr__pfet_01v8 ad=0p pd=0u as=0p ps=0u w=7e+06u l=700000u
X14 a_n1316_n664# a_n1456_n761# a_n1514_n664# w_n1652_n884# sky130_fd_pr__pfet_01v8 ad=0p pd=0u as=2.03e+12p ps=1.458e+07u w=7e+06u l=700000u
.ends

.subckt M5_B VSUBS a_3389_167# a_9069_167# m1_1675_167# m1_1279_167# a_8673_167# m1_91_167#
+ w_n104_n76# a_8277_167# a_7881_167# m1_883_167# a_7485_167# m1_487_167# a_6161_167#
+ a_7089_167# a_5765_167# a_5369_167# a_6693_167# a_4973_167# a_4577_167# m1_2863_167#
+ a_4181_167# m1_2467_167# a_3447_70# a_3587_167# a_3785_167# a_9465_167# m1_2071_167#
Xsky130_fd_pr__pfet_01v8_DDZS4V_0 VSUBS a_3447_70# a_3587_167# a_3587_167# w_n104_n76#
+ m1_1675_167# a_3447_70# a_3587_167# a_3447_70# a_3587_167# a_3447_70# a_3447_70#
+ a_3587_167# a_3447_70# m1_487_167# a_3447_70# a_3447_70# a_3587_167# m1_2863_167#
+ a_3447_70# m1_91_167# m1_1279_167# m1_883_167# a_3447_70# a_3447_70# m1_2071_167#
+ a_3447_70# a_3447_70# a_3447_70# m1_2467_167# a_3447_70# a_3587_167# a_3587_167#
+ sky130_fd_pr__pfet_01v8_DDZS4V
X0 a_3587_167# a_3447_70# a_7485_167# w_n104_n76# sky130_fd_pr__pfet_01v8 ad=4.79196e+13p pd=3.44115e+08u as=2.03e+12p ps=1.458e+07u w=7e+06u l=700000u
X1 a_3587_167# a_3447_70# a_8673_167# w_n104_n76# sky130_fd_pr__pfet_01v8 ad=0p pd=0u as=2.03e+12p ps=1.458e+07u w=7e+06u l=700000u
X2 a_3587_167# a_3447_70# a_7881_167# w_n104_n76# sky130_fd_pr__pfet_01v8 ad=0p pd=0u as=2.03e+12p ps=1.458e+07u w=7e+06u l=700000u
X3 a_6161_167# a_3447_70# a_3587_167# w_n104_n76# sky130_fd_pr__pfet_01v8 ad=2.03e+12p pd=1.458e+07u as=0p ps=0u w=7e+06u l=700000u
X4 a_3587_167# a_3447_70# a_3785_167# w_n104_n76# sky130_fd_pr__pfet_01v8 ad=0p pd=0u as=2.03e+12p ps=1.458e+07u w=7e+06u l=700000u
X5 a_5369_167# a_3447_70# a_3587_167# w_n104_n76# sky130_fd_pr__pfet_01v8 ad=2.03e+12p pd=1.458e+07u as=0p ps=0u w=7e+06u l=700000u
X6 a_7485_167# a_3447_70# a_3587_167# w_n104_n76# sky130_fd_pr__pfet_01v8 ad=0p pd=0u as=0p ps=0u w=7e+06u l=700000u
X7 a_8673_167# a_3447_70# a_3587_167# w_n104_n76# sky130_fd_pr__pfet_01v8 ad=0p pd=0u as=0p ps=0u w=7e+06u l=700000u
X8 a_9069_167# a_3447_70# a_3587_167# w_n104_n76# sky130_fd_pr__pfet_01v8 ad=2.03e+12p pd=1.458e+07u as=0p ps=0u w=7e+06u l=700000u
X9 a_3785_167# a_3447_70# a_3587_167# w_n104_n76# sky130_fd_pr__pfet_01v8 ad=0p pd=0u as=0p ps=0u w=7e+06u l=700000u
X10 a_4973_167# a_3447_70# a_3587_167# w_n104_n76# sky130_fd_pr__pfet_01v8 ad=2.03e+12p pd=1.458e+07u as=0p ps=0u w=7e+06u l=700000u
X11 a_3587_167# a_3447_70# a_6161_167# w_n104_n76# sky130_fd_pr__pfet_01v8 ad=0p pd=0u as=0p ps=0u w=7e+06u l=700000u
X12 a_3587_167# a_3447_70# a_7089_167# w_n104_n76# sky130_fd_pr__pfet_01v8 ad=0p pd=0u as=2.03e+12p ps=1.458e+07u w=7e+06u l=700000u
X13 a_3587_167# a_3447_70# a_8277_167# w_n104_n76# sky130_fd_pr__pfet_01v8 ad=0p pd=0u as=2.03e+12p ps=1.458e+07u w=7e+06u l=700000u
X14 a_3587_167# a_3447_70# a_9465_167# w_n104_n76# sky130_fd_pr__pfet_01v8 ad=0p pd=0u as=2.03e+12p ps=1.458e+07u w=7e+06u l=700000u
X15 a_3587_167# a_3447_70# a_3389_167# w_n104_n76# sky130_fd_pr__pfet_01v8 ad=0p pd=0u as=2.03e+12p ps=1.458e+07u w=7e+06u l=700000u
X16 a_3587_167# a_3447_70# a_4577_167# w_n104_n76# sky130_fd_pr__pfet_01v8 ad=0p pd=0u as=2.03e+12p ps=1.458e+07u w=7e+06u l=700000u
X17 a_3587_167# a_3447_70# a_5765_167# w_n104_n76# sky130_fd_pr__pfet_01v8 ad=0p pd=0u as=2.03e+12p ps=1.458e+07u w=7e+06u l=700000u
X18 a_3587_167# a_3447_70# a_6693_167# w_n104_n76# sky130_fd_pr__pfet_01v8 ad=0p pd=0u as=2.03e+12p ps=1.458e+07u w=7e+06u l=700000u
X19 a_8277_167# a_3447_70# a_3587_167# w_n104_n76# sky130_fd_pr__pfet_01v8 ad=0p pd=0u as=0p ps=0u w=7e+06u l=700000u
X20 a_9465_167# a_3447_70# a_3587_167# w_n104_n76# sky130_fd_pr__pfet_01v8 ad=0p pd=0u as=0p ps=0u w=7e+06u l=700000u
X21 a_4181_167# a_3447_70# a_3587_167# w_n104_n76# sky130_fd_pr__pfet_01v8 ad=2.03e+12p pd=1.458e+07u as=0p ps=0u w=7e+06u l=700000u
X22 a_5765_167# a_3447_70# a_3587_167# w_n104_n76# sky130_fd_pr__pfet_01v8 ad=0p pd=0u as=0p ps=0u w=7e+06u l=700000u
X23 a_4577_167# a_3447_70# a_3587_167# w_n104_n76# sky130_fd_pr__pfet_01v8 ad=0p pd=0u as=0p ps=0u w=7e+06u l=700000u
X24 a_7881_167# a_3447_70# a_3587_167# w_n104_n76# sky130_fd_pr__pfet_01v8 ad=0p pd=0u as=0p ps=0u w=7e+06u l=700000u
X25 a_3587_167# a_3447_70# a_9069_167# w_n104_n76# sky130_fd_pr__pfet_01v8 ad=0p pd=0u as=0p ps=0u w=7e+06u l=700000u
X26 a_7089_167# a_3447_70# a_3587_167# w_n104_n76# sky130_fd_pr__pfet_01v8 ad=0p pd=0u as=0p ps=0u w=7e+06u l=700000u
X27 a_3587_167# a_3447_70# a_4973_167# w_n104_n76# sky130_fd_pr__pfet_01v8 ad=0p pd=0u as=0p ps=0u w=7e+06u l=700000u
X28 a_3587_167# a_3447_70# a_4181_167# w_n104_n76# sky130_fd_pr__pfet_01v8 ad=0p pd=0u as=0p ps=0u w=7e+06u l=700000u
X29 a_3587_167# a_3447_70# a_5369_167# w_n104_n76# sky130_fd_pr__pfet_01v8 ad=0p pd=0u as=0p ps=0u w=7e+06u l=700000u
.ends

.subckt sky130_fd_pr__nfet_01v8_MXMZMC a_367_n801# a_n29_n801# a_227_n827# a_n425_n801#
+ a_n169_n827# a_169_n801# a_29_n827# a_n227_n801# w_n563_n949# a_n367_n827#
X0 a_n227_n801# a_n367_n827# a_n425_n801# w_n563_n949# sky130_fd_pr__nfet_01v8 ad=2.233e+12p pd=1.598e+07u as=2.233e+12p ps=1.598e+07u w=7.7e+06u l=700000u
X1 a_n29_n801# a_n169_n827# a_n227_n801# w_n563_n949# sky130_fd_pr__nfet_01v8 ad=2.233e+12p pd=1.598e+07u as=0p ps=0u w=7.7e+06u l=700000u
X2 a_169_n801# a_29_n827# a_n29_n801# w_n563_n949# sky130_fd_pr__nfet_01v8 ad=2.233e+12p pd=1.598e+07u as=0p ps=0u w=7.7e+06u l=700000u
X3 a_367_n801# a_227_n827# a_169_n801# w_n563_n949# sky130_fd_pr__nfet_01v8 ad=2.233e+12p pd=1.598e+07u as=0p ps=0u w=7.7e+06u l=700000u
.ends

.subckt M3 VSUBS m1_1812_2442# m1_2548_645# m1_2152_645# m1_1756_645#
Xsky130_fd_pr__nfet_01v8_MXMZMC_0 m1_2548_645# m1_2152_645# m1_1812_2442# m1_1756_645#
+ m1_1812_2442# m1_1812_2442# m1_1812_2442# m1_1812_2442# VSUBS m1_1812_2442# sky130_fd_pr__nfet_01v8_MXMZMC
.ends

.subckt sky130_fd_pr__cap_mim_m3_1_2674SJ VSUBS c1_n2450_n2400# m3_n2550_n2500#
X0 c1_n2450_n2400# m3_n2550_n2500# sky130_fd_pr__cap_mim_m3_1 l=2.4e+07u w=2.4e+07u
.ends

.subckt sky130_fd_pr__pfet_01v8_DDDKZT VSUBS a_227_n761# a_367_n664# a_n169_n761#
+ a_623_n761# a_n29_n664# a_763_n664# a_n565_n761# w_n1157_n884# a_n961_n761# a_n425_n664#
+ a_29_n761# a_n821_n664# a_169_n664# a_425_n761# a_565_n664# a_n367_n761# a_n1019_n664#
+ a_821_n761# a_961_n664# a_n763_n761# a_n227_n664# a_n623_n664#
X0 a_n227_n664# a_n367_n761# a_n425_n664# w_n1157_n884# sky130_fd_pr__pfet_01v8 ad=2.03e+12p pd=1.458e+07u as=2.03e+12p ps=1.458e+07u w=7e+06u l=700000u
X1 a_n821_n664# a_n961_n761# a_n1019_n664# w_n1157_n884# sky130_fd_pr__pfet_01v8 ad=2.03e+12p pd=1.458e+07u as=2.03e+12p ps=1.458e+07u w=7e+06u l=700000u
X2 a_565_n664# a_425_n761# a_367_n664# w_n1157_n884# sky130_fd_pr__pfet_01v8 ad=2.03e+12p pd=1.458e+07u as=2.03e+12p ps=1.458e+07u w=7e+06u l=700000u
X3 a_n425_n664# a_n565_n761# a_n623_n664# w_n1157_n884# sky130_fd_pr__pfet_01v8 ad=0p pd=0u as=2.03e+12p ps=1.458e+07u w=7e+06u l=700000u
X4 a_169_n664# a_29_n761# a_n29_n664# w_n1157_n884# sky130_fd_pr__pfet_01v8 ad=2.03e+12p pd=1.458e+07u as=2.03e+12p ps=1.458e+07u w=7e+06u l=700000u
X5 a_763_n664# a_623_n761# a_565_n664# w_n1157_n884# sky130_fd_pr__pfet_01v8 ad=2.03e+12p pd=1.458e+07u as=0p ps=0u w=7e+06u l=700000u
X6 a_n29_n664# a_n169_n761# a_n227_n664# w_n1157_n884# sky130_fd_pr__pfet_01v8 ad=0p pd=0u as=0p ps=0u w=7e+06u l=700000u
X7 a_367_n664# a_227_n761# a_169_n664# w_n1157_n884# sky130_fd_pr__pfet_01v8 ad=0p pd=0u as=0p ps=0u w=7e+06u l=700000u
X8 a_n623_n664# a_n763_n761# a_n821_n664# w_n1157_n884# sky130_fd_pr__pfet_01v8 ad=0p pd=0u as=0p ps=0u w=7e+06u l=700000u
X9 a_961_n664# a_821_n761# a_763_n664# w_n1157_n884# sky130_fd_pr__pfet_01v8 ad=2.03e+12p pd=1.458e+07u as=0p ps=0u w=7e+06u l=700000u
.ends

.subckt M8 VSUBS m1_2077_167# m1_1681_167# m1_1285_167# m1_889_167# m1_493_167# m1_97_179#
+ w_n182_n122# m1_143_80#
Xsky130_fd_pr__pfet_01v8_DDDKZT_0 VSUBS m1_143_80# m1_143_80# m1_143_80# m1_143_80#
+ m1_143_80# m1_143_80# m1_143_80# w_n182_n122# m1_143_80# m1_143_80# m1_143_80# m1_143_80#
+ m1_1285_167# m1_143_80# m1_1681_167# m1_143_80# m1_97_179# m1_143_80# m1_2077_167#
+ m1_143_80# m1_889_167# m1_493_167# sky130_fd_pr__pfet_01v8_DDDKZT
.ends

.subckt sky130_fd_pr__nfet_01v8_93MENK a_n1744_n357# a_1088_n357# VSUBS a_2386_n357#
+ a_3684_n357# a_4982_n357# a_2032_n357# a_734_n357# a_3330_n357# a_n3097_n269# a_5218_n357#
+ a_n5693_n269# a_2095_n269# a_n265_n269# a_n4395_n269# a_n1390_n357# a_4691_n269#
+ a_3393_n269# a_797_n269# a_n4041_n269# a_n4576_n357# a_n3278_n357# a_443_n269# a_n5874_n357#
+ a_n446_n357# a_n4222_n357# a_380_n357# a_n5520_n357# a_n92_n357# a_2858_n357# a_1206_n357#
+ a_2504_n357# a_3802_n357# a_n1681_n269# a_1269_n269# a_n3569_n269# a_n4867_n269#
+ a_3865_n269# a_2567_n269# a_n737_n269# a_n1862_n357# a_n3215_n269# a_n5811_n269#
+ a_2213_n269# a_n4513_n269# a_3511_n269# a_915_n269# a_n918_n357# a_2150_n357# a_852_n357#
+ a_4038_n357# a_5336_n357# a_n383_n269# a_n2098_n357# a_5399_n269# a_n4694_n357#
+ a_n3396_n357# a_561_n269# a_n564_n357# a_5045_n269# a_n4340_n357# a_n3042_n357#
+ a_n210_n357# a_1678_n357# a_2976_n357# a_1324_n357# a_2622_n357# a_3920_n357# a_n2389_n269#
+ a_5808_n357# a_1387_n269# a_n3687_n269# a_n4985_n269# a_3983_n269# a_2685_n269#
+ a_n855_n269# a_n2035_n269# a_n1980_n357# a_1033_n269# a_n3333_n269# a_2331_n269#
+ a_n501_n269# a_n4631_n269# a_n3868_n357# a_4219_n269# a_n3514_n357# a_n2216_n357#
+ a_970_n357# a_5517_n269# a_n4812_n357# a_4156_n357# a_5454_n357# a_5100_n357# a_n682_n357#
+ a_5163_n269# a_n3160_n357# a_1859_n269# a_n5048_n357# a_n1209_n269# a_n2507_n269#
+ a_1796_n357# a_1505_n269# a_n3805_n269# a_2803_n269# a_1442_n357# a_2740_n357# a_4628_n357#
+ a_n973_n269# a_n2153_n269# a_n3451_n269# a_26_n357# a_1151_n269# a_n3986_n357# a_n2688_n357#
+ a_n5339_n269# a_n1036_n357# a_4337_n269# a_3039_n269# a_n2334_n357# a_5635_n269#
+ a_89_n269# a_n4930_n357# a_n3632_n357# a_4274_n357# a_n800_n357# a_5572_n357# a_1914_n357#
+ a_5281_n269# a_n2979_n269# a_1977_n269# a_n5166_n357# a_n1327_n269# a_n2625_n269#
+ a_1623_n269# a_n3923_n269# a_2921_n269# a_1560_n357# a_n1508_n357# a_4809_n269#
+ a_n2806_n357# a_3448_n357# a_n29_n269# a_4746_n357# a_n2271_n269# a_n5457_n269#
+ a_n4159_n269# a_n1154_n357# a_4455_n269# a_3157_n269# a_n2452_n357# a_5753_n269#
+ a_n5103_n269# a_n3750_n357# a_498_n357# a_3094_n357# a_4392_n357# a_4101_n269# a_5690_n357#
+ a_207_n269# a_n5638_n357# a_144_n357# a_n1799_n269# a_n5284_n357# a_n1445_n269#
+ a_n2743_n269# a_1741_n269# a_n5929_n269# a_3629_n269# a_n1626_n357# a_4927_n269#
+ a_n2924_n357# a_2268_n357# a_3566_n357# a_4864_n357# a_3212_n357# a_n1091_n269#
+ a_616_n357# a_4510_n357# a_n5575_n269# a_n147_n269# a_n4277_n269# a_n1272_n357#
+ a_4573_n269# a_3275_n269# a_679_n269# a_n2570_n357# a_5871_n269# a_n5221_n269# a_n4458_n357#
+ a_325_n269# a_n1917_n269# a_n5756_n357# a_n328_n357# a_n4104_n357# a_262_n357# a_n5402_n357#
+ a_n1563_n269# a_n2861_n269# a_n4749_n269# a_3747_n269# a_2449_n269# a_n619_n269#
X0 a_n147_n269# a_n210_n357# a_n265_n269# VSUBS sky130_fd_pr__nfet_01v8 ad=8.7e+11p pd=6.58e+06u as=8.7e+11p ps=6.58e+06u w=3e+06u l=300000u
X1 a_1623_n269# a_1560_n357# a_1505_n269# VSUBS sky130_fd_pr__nfet_01v8 ad=8.7e+11p pd=6.58e+06u as=8.7e+11p ps=6.58e+06u w=3e+06u l=300000u
X2 a_4101_n269# a_4038_n357# a_3983_n269# VSUBS sky130_fd_pr__nfet_01v8 ad=8.7e+11p pd=6.58e+06u as=8.7e+11p ps=6.58e+06u w=3e+06u l=300000u
X3 a_561_n269# a_498_n357# a_443_n269# VSUBS sky130_fd_pr__nfet_01v8 ad=8.7e+11p pd=6.58e+06u as=8.7e+11p ps=6.58e+06u w=3e+06u l=300000u
X4 a_n1091_n269# a_n1154_n357# a_n1209_n269# VSUBS sky130_fd_pr__nfet_01v8 ad=8.7e+11p pd=6.58e+06u as=8.7e+11p ps=6.58e+06u w=3e+06u l=300000u
X5 a_4691_n269# a_4628_n357# a_4573_n269# VSUBS sky130_fd_pr__nfet_01v8 ad=8.7e+11p pd=6.58e+06u as=8.7e+11p ps=6.58e+06u w=3e+06u l=300000u
X6 a_n1681_n269# a_n1744_n357# a_n1799_n269# VSUBS sky130_fd_pr__nfet_01v8 ad=8.7e+11p pd=6.58e+06u as=8.7e+11p ps=6.58e+06u w=3e+06u l=300000u
X7 a_n3333_n269# a_n3396_n357# a_n3451_n269# VSUBS sky130_fd_pr__nfet_01v8 ad=8.7e+11p pd=6.58e+06u as=8.7e+11p ps=6.58e+06u w=3e+06u l=300000u
X8 a_1505_n269# a_1442_n357# a_1387_n269# VSUBS sky130_fd_pr__nfet_01v8 ad=0p pd=0u as=8.7e+11p ps=6.58e+06u w=3e+06u l=300000u
X9 a_n3923_n269# a_n3986_n357# a_n4041_n269# VSUBS sky130_fd_pr__nfet_01v8 ad=8.7e+11p pd=6.58e+06u as=8.7e+11p ps=6.58e+06u w=3e+06u l=300000u
X10 a_3157_n269# a_3094_n357# a_3039_n269# VSUBS sky130_fd_pr__nfet_01v8 ad=8.7e+11p pd=6.58e+06u as=8.7e+11p ps=6.58e+06u w=3e+06u l=300000u
X11 a_n973_n269# a_n1036_n357# a_n1091_n269# VSUBS sky130_fd_pr__nfet_01v8 ad=8.7e+11p pd=6.58e+06u as=0p ps=0u w=3e+06u l=300000u
X12 a_3747_n269# a_3684_n357# a_3629_n269# VSUBS sky130_fd_pr__nfet_01v8 ad=8.7e+11p pd=6.58e+06u as=8.7e+11p ps=6.58e+06u w=3e+06u l=300000u
X13 a_4573_n269# a_4510_n357# a_4455_n269# VSUBS sky130_fd_pr__nfet_01v8 ad=0p pd=0u as=8.7e+11p ps=6.58e+06u w=3e+06u l=300000u
X14 a_n1563_n269# a_n1626_n357# a_n1681_n269# VSUBS sky130_fd_pr__nfet_01v8 ad=8.7e+11p pd=6.58e+06u as=0p ps=0u w=3e+06u l=300000u
X15 a_n3215_n269# a_n3278_n357# a_n3333_n269# VSUBS sky130_fd_pr__nfet_01v8 ad=8.7e+11p pd=6.58e+06u as=0p ps=0u w=3e+06u l=300000u
X16 a_1387_n269# a_1324_n357# a_1269_n269# VSUBS sky130_fd_pr__nfet_01v8 ad=0p pd=0u as=8.7e+11p ps=6.58e+06u w=3e+06u l=300000u
X17 a_n3805_n269# a_n3868_n357# a_n3923_n269# VSUBS sky130_fd_pr__nfet_01v8 ad=8.7e+11p pd=6.58e+06u as=0p ps=0u w=3e+06u l=300000u
X18 a_n4041_n269# a_n4104_n357# a_n4159_n269# VSUBS sky130_fd_pr__nfet_01v8 ad=0p pd=0u as=8.7e+11p ps=6.58e+06u w=3e+06u l=300000u
X19 a_1977_n269# a_1914_n357# a_1859_n269# VSUBS sky130_fd_pr__nfet_01v8 ad=8.7e+11p pd=6.58e+06u as=8.7e+11p ps=6.58e+06u w=3e+06u l=300000u
X20 a_3629_n269# a_3566_n357# a_3511_n269# VSUBS sky130_fd_pr__nfet_01v8 ad=0p pd=0u as=8.7e+11p ps=6.58e+06u w=3e+06u l=300000u
X21 a_n1445_n269# a_n1508_n357# a_n1563_n269# VSUBS sky130_fd_pr__nfet_01v8 ad=8.7e+11p pd=6.58e+06u as=0p ps=0u w=3e+06u l=300000u
X22 a_n3097_n269# a_n3160_n357# a_n3215_n269# VSUBS sky130_fd_pr__nfet_01v8 ad=8.7e+11p pd=6.58e+06u as=0p ps=0u w=3e+06u l=300000u
X23 a_1269_n269# a_1206_n357# a_1151_n269# VSUBS sky130_fd_pr__nfet_01v8 ad=0p pd=0u as=8.7e+11p ps=6.58e+06u w=3e+06u l=300000u
X24 a_n3687_n269# a_n3750_n357# a_n3805_n269# VSUBS sky130_fd_pr__nfet_01v8 ad=8.7e+11p pd=6.58e+06u as=0p ps=0u w=3e+06u l=300000u
X25 a_n5339_n269# a_n5402_n357# a_n5457_n269# VSUBS sky130_fd_pr__nfet_01v8 ad=8.7e+11p pd=6.58e+06u as=8.7e+11p ps=6.58e+06u w=3e+06u l=300000u
X26 a_n737_n269# a_n800_n357# a_n855_n269# VSUBS sky130_fd_pr__nfet_01v8 ad=8.7e+11p pd=6.58e+06u as=8.7e+11p ps=6.58e+06u w=3e+06u l=300000u
X27 a_n2979_n269# a_n3042_n357# a_n3097_n269# VSUBS sky130_fd_pr__nfet_01v8 ad=8.7e+11p pd=6.58e+06u as=0p ps=0u w=3e+06u l=300000u
X28 a_n3569_n269# a_n3632_n357# a_n3687_n269# VSUBS sky130_fd_pr__nfet_01v8 ad=8.7e+11p pd=6.58e+06u as=0p ps=0u w=3e+06u l=300000u
X29 a_n619_n269# a_n682_n357# a_n737_n269# VSUBS sky130_fd_pr__nfet_01v8 ad=8.7e+11p pd=6.58e+06u as=0p ps=0u w=3e+06u l=300000u
X30 a_2331_n269# a_2268_n357# a_2213_n269# VSUBS sky130_fd_pr__nfet_01v8 ad=8.7e+11p pd=6.58e+06u as=8.7e+11p ps=6.58e+06u w=3e+06u l=300000u
X31 a_2921_n269# a_2858_n357# a_2803_n269# VSUBS sky130_fd_pr__nfet_01v8 ad=8.7e+11p pd=6.58e+06u as=8.7e+11p ps=6.58e+06u w=3e+06u l=300000u
X32 a_443_n269# a_380_n357# a_325_n269# VSUBS sky130_fd_pr__nfet_01v8 ad=0p pd=0u as=8.7e+11p ps=6.58e+06u w=3e+06u l=300000u
X33 a_1033_n269# a_970_n357# a_915_n269# VSUBS sky130_fd_pr__nfet_01v8 ad=8.7e+11p pd=6.58e+06u as=8.7e+11p ps=6.58e+06u w=3e+06u l=300000u
X34 a_2213_n269# a_2150_n357# a_2095_n269# VSUBS sky130_fd_pr__nfet_01v8 ad=0p pd=0u as=8.7e+11p ps=6.58e+06u w=3e+06u l=300000u
X35 a_n4631_n269# a_n4694_n357# a_n4749_n269# VSUBS sky130_fd_pr__nfet_01v8 ad=8.7e+11p pd=6.58e+06u as=8.7e+11p ps=6.58e+06u w=3e+06u l=300000u
X36 a_2803_n269# a_2740_n357# a_2685_n269# VSUBS sky130_fd_pr__nfet_01v8 ad=0p pd=0u as=8.7e+11p ps=6.58e+06u w=3e+06u l=300000u
X37 a_325_n269# a_262_n357# a_207_n269# VSUBS sky130_fd_pr__nfet_01v8 ad=0p pd=0u as=8.7e+11p ps=6.58e+06u w=3e+06u l=300000u
X38 a_915_n269# a_852_n357# a_797_n269# VSUBS sky130_fd_pr__nfet_01v8 ad=0p pd=0u as=8.7e+11p ps=6.58e+06u w=3e+06u l=300000u
X39 a_4455_n269# a_4392_n357# a_4337_n269# VSUBS sky130_fd_pr__nfet_01v8 ad=0p pd=0u as=8.7e+11p ps=6.58e+06u w=3e+06u l=300000u
X40 a_n2271_n269# a_n2334_n357# a_n2389_n269# VSUBS sky130_fd_pr__nfet_01v8 ad=8.7e+11p pd=6.58e+06u as=8.7e+11p ps=6.58e+06u w=3e+06u l=300000u
X41 a_5281_n269# a_5218_n357# a_5163_n269# VSUBS sky130_fd_pr__nfet_01v8 ad=8.7e+11p pd=6.58e+06u as=8.7e+11p ps=6.58e+06u w=3e+06u l=300000u
X42 a_5045_n269# a_4982_n357# a_4927_n269# VSUBS sky130_fd_pr__nfet_01v8 ad=8.7e+11p pd=6.58e+06u as=8.7e+11p ps=6.58e+06u w=3e+06u l=300000u
X43 a_5871_n269# a_5808_n357# a_5753_n269# VSUBS sky130_fd_pr__nfet_01v8 ad=8.7e+11p pd=6.58e+06u as=8.7e+11p ps=6.58e+06u w=3e+06u l=300000u
X44 a_n2861_n269# a_n2924_n357# a_n2979_n269# VSUBS sky130_fd_pr__nfet_01v8 ad=8.7e+11p pd=6.58e+06u as=0p ps=0u w=3e+06u l=300000u
X45 a_2095_n269# a_2032_n357# a_1977_n269# VSUBS sky130_fd_pr__nfet_01v8 ad=0p pd=0u as=0p ps=0u w=3e+06u l=300000u
X46 a_1859_n269# a_1796_n357# a_1741_n269# VSUBS sky130_fd_pr__nfet_01v8 ad=0p pd=0u as=8.7e+11p ps=6.58e+06u w=3e+06u l=300000u
X47 a_n4513_n269# a_n4576_n357# a_n4631_n269# VSUBS sky130_fd_pr__nfet_01v8 ad=8.7e+11p pd=6.58e+06u as=0p ps=0u w=3e+06u l=300000u
X48 a_207_n269# a_144_n357# a_89_n269# VSUBS sky130_fd_pr__nfet_01v8 ad=0p pd=0u as=8.7e+11p ps=6.58e+06u w=3e+06u l=300000u
X49 a_2685_n269# a_2622_n357# a_2567_n269# VSUBS sky130_fd_pr__nfet_01v8 ad=0p pd=0u as=8.7e+11p ps=6.58e+06u w=3e+06u l=300000u
X50 a_4337_n269# a_4274_n357# a_4219_n269# VSUBS sky130_fd_pr__nfet_01v8 ad=0p pd=0u as=8.7e+11p ps=6.58e+06u w=3e+06u l=300000u
X51 a_797_n269# a_734_n357# a_679_n269# VSUBS sky130_fd_pr__nfet_01v8 ad=0p pd=0u as=8.7e+11p ps=6.58e+06u w=3e+06u l=300000u
X52 a_n1327_n269# a_n1390_n357# a_n1445_n269# VSUBS sky130_fd_pr__nfet_01v8 ad=8.7e+11p pd=6.58e+06u as=0p ps=0u w=3e+06u l=300000u
X53 a_n1917_n269# a_n1980_n357# a_n2035_n269# VSUBS sky130_fd_pr__nfet_01v8 ad=8.7e+11p pd=6.58e+06u as=8.7e+11p ps=6.58e+06u w=3e+06u l=300000u
X54 a_n2153_n269# a_n2216_n357# a_n2271_n269# VSUBS sky130_fd_pr__nfet_01v8 ad=8.7e+11p pd=6.58e+06u as=0p ps=0u w=3e+06u l=300000u
X55 a_5163_n269# a_5100_n357# a_5045_n269# VSUBS sky130_fd_pr__nfet_01v8 ad=0p pd=0u as=0p ps=0u w=3e+06u l=300000u
X56 a_4927_n269# a_4864_n357# a_4809_n269# VSUBS sky130_fd_pr__nfet_01v8 ad=0p pd=0u as=8.7e+11p ps=6.58e+06u w=3e+06u l=300000u
X57 a_n29_n269# a_n92_n357# a_n147_n269# VSUBS sky130_fd_pr__nfet_01v8 ad=8.7e+11p pd=6.58e+06u as=0p ps=0u w=3e+06u l=300000u
X58 a_n2743_n269# a_n2806_n357# a_n2861_n269# VSUBS sky130_fd_pr__nfet_01v8 ad=8.7e+11p pd=6.58e+06u as=0p ps=0u w=3e+06u l=300000u
X59 a_n4395_n269# a_n4458_n357# a_n4513_n269# VSUBS sky130_fd_pr__nfet_01v8 ad=8.7e+11p pd=6.58e+06u as=0p ps=0u w=3e+06u l=300000u
X60 a_2567_n269# a_2504_n357# a_2449_n269# VSUBS sky130_fd_pr__nfet_01v8 ad=0p pd=0u as=8.7e+11p ps=6.58e+06u w=3e+06u l=300000u
X61 a_4219_n269# a_4156_n357# a_4101_n269# VSUBS sky130_fd_pr__nfet_01v8 ad=0p pd=0u as=0p ps=0u w=3e+06u l=300000u
X62 a_679_n269# a_616_n357# a_561_n269# VSUBS sky130_fd_pr__nfet_01v8 ad=0p pd=0u as=0p ps=0u w=3e+06u l=300000u
X63 a_n1209_n269# a_n1272_n357# a_n1327_n269# VSUBS sky130_fd_pr__nfet_01v8 ad=0p pd=0u as=0p ps=0u w=3e+06u l=300000u
X64 a_n1799_n269# a_n1862_n357# a_n1917_n269# VSUBS sky130_fd_pr__nfet_01v8 ad=0p pd=0u as=0p ps=0u w=3e+06u l=300000u
X65 a_4809_n269# a_4746_n357# a_4691_n269# VSUBS sky130_fd_pr__nfet_01v8 ad=0p pd=0u as=0p ps=0u w=3e+06u l=300000u
X66 a_n4277_n269# a_n4340_n357# a_n4395_n269# VSUBS sky130_fd_pr__nfet_01v8 ad=8.7e+11p pd=6.58e+06u as=0p ps=0u w=3e+06u l=300000u
X67 a_n4867_n269# a_n4930_n357# a_n4985_n269# VSUBS sky130_fd_pr__nfet_01v8 ad=8.7e+11p pd=6.58e+06u as=8.7e+11p ps=6.58e+06u w=3e+06u l=300000u
X68 a_n4159_n269# a_n4222_n357# a_n4277_n269# VSUBS sky130_fd_pr__nfet_01v8 ad=0p pd=0u as=0p ps=0u w=3e+06u l=300000u
X69 a_n4749_n269# a_n4812_n357# a_n4867_n269# VSUBS sky130_fd_pr__nfet_01v8 ad=0p pd=0u as=0p ps=0u w=3e+06u l=300000u
X70 a_3511_n269# a_3448_n357# a_3393_n269# VSUBS sky130_fd_pr__nfet_01v8 ad=0p pd=0u as=8.7e+11p ps=6.58e+06u w=3e+06u l=300000u
X71 a_89_n269# a_26_n357# a_n29_n269# VSUBS sky130_fd_pr__nfet_01v8 ad=0p pd=0u as=0p ps=0u w=3e+06u l=300000u
X72 a_5753_n269# a_5690_n357# a_5635_n269# VSUBS sky130_fd_pr__nfet_01v8 ad=0p pd=0u as=8.7e+11p ps=6.58e+06u w=3e+06u l=300000u
X73 a_n5221_n269# a_n5284_n357# a_n5339_n269# VSUBS sky130_fd_pr__nfet_01v8 ad=8.7e+11p pd=6.58e+06u as=0p ps=0u w=3e+06u l=300000u
X74 a_3393_n269# a_3330_n357# a_3275_n269# VSUBS sky130_fd_pr__nfet_01v8 ad=0p pd=0u as=8.7e+11p ps=6.58e+06u w=3e+06u l=300000u
X75 a_n5811_n269# a_n5874_n357# a_n5929_n269# VSUBS sky130_fd_pr__nfet_01v8 ad=8.7e+11p pd=6.58e+06u as=8.7e+11p ps=6.58e+06u w=3e+06u l=300000u
X76 a_n2035_n269# a_n2098_n357# a_n2153_n269# VSUBS sky130_fd_pr__nfet_01v8 ad=0p pd=0u as=0p ps=0u w=3e+06u l=300000u
X77 a_3983_n269# a_3920_n357# a_3865_n269# VSUBS sky130_fd_pr__nfet_01v8 ad=0p pd=0u as=8.7e+11p ps=6.58e+06u w=3e+06u l=300000u
X78 a_5635_n269# a_5572_n357# a_5517_n269# VSUBS sky130_fd_pr__nfet_01v8 ad=0p pd=0u as=8.7e+11p ps=6.58e+06u w=3e+06u l=300000u
X79 a_n2625_n269# a_n2688_n357# a_n2743_n269# VSUBS sky130_fd_pr__nfet_01v8 ad=8.7e+11p pd=6.58e+06u as=0p ps=0u w=3e+06u l=300000u
X80 a_n3451_n269# a_n3514_n357# a_n3569_n269# VSUBS sky130_fd_pr__nfet_01v8 ad=0p pd=0u as=0p ps=0u w=3e+06u l=300000u
X81 a_2449_n269# a_2386_n357# a_2331_n269# VSUBS sky130_fd_pr__nfet_01v8 ad=0p pd=0u as=0p ps=0u w=3e+06u l=300000u
X82 a_n5103_n269# a_n5166_n357# a_n5221_n269# VSUBS sky130_fd_pr__nfet_01v8 ad=8.7e+11p pd=6.58e+06u as=0p ps=0u w=3e+06u l=300000u
X83 a_3275_n269# a_3212_n357# a_3157_n269# VSUBS sky130_fd_pr__nfet_01v8 ad=0p pd=0u as=0p ps=0u w=3e+06u l=300000u
X84 a_3039_n269# a_2976_n357# a_2921_n269# VSUBS sky130_fd_pr__nfet_01v8 ad=0p pd=0u as=0p ps=0u w=3e+06u l=300000u
X85 a_n5693_n269# a_n5756_n357# a_n5811_n269# VSUBS sky130_fd_pr__nfet_01v8 ad=8.7e+11p pd=6.58e+06u as=0p ps=0u w=3e+06u l=300000u
X86 a_n501_n269# a_n564_n357# a_n619_n269# VSUBS sky130_fd_pr__nfet_01v8 ad=8.7e+11p pd=6.58e+06u as=0p ps=0u w=3e+06u l=300000u
X87 a_3865_n269# a_3802_n357# a_3747_n269# VSUBS sky130_fd_pr__nfet_01v8 ad=0p pd=0u as=0p ps=0u w=3e+06u l=300000u
X88 a_5517_n269# a_5454_n357# a_5399_n269# VSUBS sky130_fd_pr__nfet_01v8 ad=0p pd=0u as=8.7e+11p ps=6.58e+06u w=3e+06u l=300000u
X89 a_n2507_n269# a_n2570_n357# a_n2625_n269# VSUBS sky130_fd_pr__nfet_01v8 ad=8.7e+11p pd=6.58e+06u as=0p ps=0u w=3e+06u l=300000u
X90 a_n4985_n269# a_n5048_n357# a_n5103_n269# VSUBS sky130_fd_pr__nfet_01v8 ad=0p pd=0u as=0p ps=0u w=3e+06u l=300000u
X91 a_n5575_n269# a_n5638_n357# a_n5693_n269# VSUBS sky130_fd_pr__nfet_01v8 ad=8.7e+11p pd=6.58e+06u as=0p ps=0u w=3e+06u l=300000u
X92 a_n383_n269# a_n446_n357# a_n501_n269# VSUBS sky130_fd_pr__nfet_01v8 ad=8.7e+11p pd=6.58e+06u as=0p ps=0u w=3e+06u l=300000u
X93 a_5399_n269# a_5336_n357# a_5281_n269# VSUBS sky130_fd_pr__nfet_01v8 ad=0p pd=0u as=0p ps=0u w=3e+06u l=300000u
X94 a_n2389_n269# a_n2452_n357# a_n2507_n269# VSUBS sky130_fd_pr__nfet_01v8 ad=0p pd=0u as=0p ps=0u w=3e+06u l=300000u
X95 a_n5457_n269# a_n5520_n357# a_n5575_n269# VSUBS sky130_fd_pr__nfet_01v8 ad=0p pd=0u as=0p ps=0u w=3e+06u l=300000u
X96 a_n265_n269# a_n328_n357# a_n383_n269# VSUBS sky130_fd_pr__nfet_01v8 ad=0p pd=0u as=0p ps=0u w=3e+06u l=300000u
X97 a_n855_n269# a_n918_n357# a_n973_n269# VSUBS sky130_fd_pr__nfet_01v8 ad=0p pd=0u as=0p ps=0u w=3e+06u l=300000u
X98 a_1151_n269# a_1088_n357# a_1033_n269# VSUBS sky130_fd_pr__nfet_01v8 ad=0p pd=0u as=0p ps=0u w=3e+06u l=300000u
X99 a_1741_n269# a_1678_n357# a_1623_n269# VSUBS sky130_fd_pr__nfet_01v8 ad=0p pd=0u as=0p ps=0u w=3e+06u l=300000u
.ends

.subckt sky130_fd_pr__nfet_01v8_F2M6PM a_n2806_n388# a_n1508_n388# VSUBS a_3448_n388#
+ a_4746_n388# a_1269_n300# a_n3569_n300# a_2567_n300# a_n737_n300# a_n4867_n300#
+ a_3865_n300# a_n3215_n300# a_n5811_n300# a_2213_n300# a_n4513_n300# a_3511_n300#
+ a_915_n300# a_n2452_n388# a_n1154_n388# a_n3750_n388# a_3094_n388# a_498_n388# a_4392_n388#
+ a_5690_n388# a_n5638_n388# a_n383_n300# a_144_n388# a_5399_n300# a_561_n300# a_5045_n300#
+ a_n5284_n388# a_n2924_n388# a_n1626_n388# a_2268_n388# a_n2389_n300# a_3566_n388#
+ a_4864_n388# a_n3687_n300# a_2685_n300# a_1387_n300# a_n855_n300# a_n4985_n300#
+ a_3212_n388# a_3983_n300# a_n2035_n300# a_n3333_n300# a_616_n388# a_4510_n388# a_2331_n300#
+ a_1033_n300# a_n4631_n300# a_n501_n300# a_4219_n300# a_n1272_n388# a_5517_n300#
+ a_n2570_n388# a_n5756_n388# a_n4458_n388# a_n328_n388# a_262_n388# a_n5402_n388#
+ a_n4104_n388# a_5163_n300# a_1859_n300# a_n1209_n300# a_n2507_n300# a_1505_n300#
+ a_n3805_n300# a_2803_n300# a_n1744_n388# a_1088_n388# a_2386_n388# a_3684_n388#
+ a_4982_n388# a_2032_n388# a_n973_n300# a_3330_n388# a_n2153_n300# a_n3451_n300#
+ a_734_n388# a_1151_n300# a_5218_n388# a_n5339_n300# a_4337_n300# a_3039_n300# a_n1390_n388#
+ a_5635_n300# a_89_n300# a_n3278_n388# a_n5874_n388# a_n4576_n388# a_n446_n388# a_380_n388#
+ a_n5520_n388# a_n4222_n388# a_n92_n388# a_5281_n300# a_2858_n388# a_n2979_n300#
+ a_1977_n300# a_1206_n388# a_2504_n388# a_n1327_n300# a_n2625_n300# a_3802_n388#
+ a_1623_n300# a_n3923_n300# a_2921_n300# a_4809_n300# a_n1862_n388# a_n29_n300# a_2150_n388#
+ a_n918_n388# a_n2271_n300# a_852_n388# a_4038_n388# a_5336_n388# a_n5457_n300# a_n4159_n300#
+ a_4455_n300# a_3157_n300# a_5753_n300# a_n2098_n388# a_n5103_n300# a_n3396_n388#
+ a_4101_n300# a_207_n300# a_n4694_n388# a_n564_n388# a_n3042_n388# a_n4340_n388#
+ a_n210_n388# a_1678_n388# a_2976_n388# a_n1799_n300# a_1324_n388# a_2622_n388# a_n1445_n300#
+ a_n2743_n300# a_3920_n388# a_1741_n300# a_5808_n388# a_n5929_n300# a_4927_n300#
+ a_3629_n300# a_n1980_n388# a_n3868_n388# a_n1091_n300# a_n2216_n388# a_n3514_n388#
+ a_970_n388# a_n4812_n388# a_4156_n388# a_5454_n388# a_n5575_n300# a_n4277_n300#
+ a_3275_n300# a_n147_n300# a_5100_n388# a_5871_n300# a_4573_n300# a_679_n300# a_n5221_n300#
+ a_325_n300# a_n682_n388# a_n1917_n300# a_n3160_n388# a_n5048_n388# a_1796_n388#
+ a_1442_n388# a_2740_n388# a_n1563_n300# a_n2861_n300# a_4628_n388# a_2449_n300#
+ a_n619_n300# a_n4749_n300# a_3747_n300# a_26_n388# a_n2688_n388# a_n3986_n388# a_n2334_n388#
+ a_n1036_n388# a_n3632_n388# a_n3097_n300# a_n4930_n388# a_n800_n388# a_4274_n388#
+ a_5572_n388# a_n5693_n300# a_2095_n300# a_n4395_n300# a_3393_n300# a_n265_n300#
+ a_4691_n300# a_797_n300# a_n4041_n300# a_1914_n388# a_443_n300# a_n5166_n388# a_1560_n388#
+ a_n1681_n300#
X0 a_n619_n300# a_n682_n388# a_n737_n300# VSUBS sky130_fd_pr__nfet_01v8 ad=8.7e+11p pd=6.58e+06u as=8.7e+11p ps=6.58e+06u w=3e+06u l=300000u
X1 a_2331_n300# a_2268_n388# a_2213_n300# VSUBS sky130_fd_pr__nfet_01v8 ad=8.7e+11p pd=6.58e+06u as=8.7e+11p ps=6.58e+06u w=3e+06u l=300000u
X2 a_443_n300# a_380_n388# a_325_n300# VSUBS sky130_fd_pr__nfet_01v8 ad=8.7e+11p pd=6.58e+06u as=8.7e+11p ps=6.58e+06u w=3e+06u l=300000u
X3 a_2921_n300# a_2858_n388# a_2803_n300# VSUBS sky130_fd_pr__nfet_01v8 ad=8.7e+11p pd=6.58e+06u as=8.7e+11p ps=6.58e+06u w=3e+06u l=300000u
X4 a_1033_n300# a_970_n388# a_915_n300# VSUBS sky130_fd_pr__nfet_01v8 ad=8.7e+11p pd=6.58e+06u as=8.7e+11p ps=6.58e+06u w=3e+06u l=300000u